clock {
	timezone PST+8PDT;
	starttime '2000-01-01 00:00:00';
	stoptime '2000-01-01 00:00:00';
};

#set minimum_timestep=60;
#set profiler=1;
#set relax_naming_rules=1;
module generators;
module tape;
module residential {
	implicit_enduses NONE;
};

module powerflow {
	solver_method NR;
	NR_iteration_limit 50;
};

object node {
	phases ABCN;
	name FRIENDSHIP;
	bustype SWING;
	longitude 800.0;
	nominal_voltage 7200.0;
	latitude 603.623393993;
};

object regulator_configuration {
	Control OUTPUT_VOLTAGE;
	Type A;
	raise_taps 16.0;
	name REG27-CONFIG;
	band_center 123.9996;
	current_transducer_ratio 328;
	tap_pos_B 1;
	tap_pos_C 1;
	time_delay 30.0;
	connect_type WYE_WYE;
	regulation 0.1;
	CT_phase ABC;
	power_transducer_ratio 60.0;
	lower_taps 16.0;
	tap_pos_A 1;
	control_level INDIVIDUAL;
	PT_phase ABC;
	band_width 2.000004;
};

object regulator {
	phases ACB;
	from FRIENDSHIP;
	name REG27;
	longitude 794.827590509;
	to node958175REG27;
	latitude 533.055734649;
	configuration REG27-CONFIG;
};

object underground_line {
	phases ACB;
	from node958175REG27;
	name 958175;
	longitude 799.410100044;
	to nodeRFRN1-R0001x1958175;
	length 24;
	latitude 603.526121671;
	configuration 978204-LINECONFIG;
};

object fuse {
	phases ACB;
	from nodeRFRN1-R0001x1958175;
	name RFRN1-R0001x1;
	current_limit 9999.0 A;
	longitude 799.410100044;
	to node958178RFRN1-R0001x1;
	latitude 603.526121671;
};

object underground_line {
	phases ACB;
	from node958178RFRN1-R0001x1;
	name 958178;
	to node958179958178;
	longitude 790.577543944;
	length 780;
	latitude 608.195193126;
	configuration 978204-LINECONFIG;
};

object underground_line {
	phases ACB;
	from node958179958178;
	name 958179;
	longitude 780.134720395;
	to node978195958179;
	length 860;
	latitude 602.650670774;
	configuration 978204-LINECONFIG;
};

object underground_line_conductor {
	conductor_gmr 0.02603;
	conductor_resistance 0.23232;
	shield_resistance 0.000000;
	neutral_gmr 0.0317574;
	neutral_strands 16;
	conductor_diameter 0.810000;
	name 978195-LINECONFIGunderground_line_conductor604;
	insulation_relative_permitivitty 2.4;
	outer_diameter 1.580004;
	neutral_resistance 702.24;
	neutral_diameter 0.160008;
	shield_gmr 0.000000;
};

object underground_line {
	phases ACB;
	from node978195958179;
	name 978195;
	longitude 749.890390211;
	to node978172978195;
	length 1970;
	latitude 602.285899566;
	configuration 978204-LINECONFIG;
};

object underground_line {
	phases ACB;
	from node978172978195;
	name 978172;
	longitude 737.805412731;
	to node978174978172;
	length 780;
	latitude 602.431808049;
	configuration 978204-LINECONFIG;
};

object underground_line {
	phases B;
	from node978174978172;
	name 978174;
	longitude 737.885128941;
	to nodeF28653x1978174;
	length 30;
	latitude 602.796579257;
	configuration 929369-LINECONFIG;
};

object fuse {
	phases B;
	from nodeF28653x1978174;
	name F28653x1;
	current_limit 9999.0 A;
	longitude 737.885128941;
	to node978192F28653x1;
	latitude 602.796579257;
};

object underground_line {
	phases B;
	from node978192F28653x1;
	name 978192;
	longitude 738.905496433;
	to node949317978192;
	length 40;
	latitude 602.893851579;
	configuration 929369-LINECONFIG;
};

object underground_line {
	phases B;
	from node949317978192;
	name 949317;
	longitude 737.661923552;
	to node949318949317;
	length 469;
	latitude 613.545170835;
	configuration 929369-LINECONFIG;
};

object underground_line {
	phases B;
	from node949318949317;
	name 949318;
	to nodeT14104949318;
	longitude 737.677866794;
	length 519;
	latitude 626.190572691;
	configuration 929369-LINECONFIG;
};

object underground_line {
	phases B;
	from node949318949317;
	name 949319;
	longitude 737.119853322;
	to nodeT14100949319;
	length 40;
	latitude 613.350626191;
	configuration 929369-LINECONFIG;
};

object underground_line {
	phases C;
	from node978174978172;
	name 978200;
	to nodeR2911x1978200;
	longitude 741.823109729;
	length 314;
	latitude 603.623393993;
	configuration 970069-LINECONFIG;
};

object fuse {
	phases C;
	from nodeR2911x1978200;
	name R2911x1;
	current_limit 9999.0 A;
	longitude 741.823109729;
	to node839461R2911x1;
	latitude 603.623393993;
};

object overhead_line {
	phases CN;
	from node839461R2911x1;
	name 839461;
	longitude 741.90282594;
	to node839464839461;
	length 60;
	latitude 605.93361164;
	configuration 840428-LINECONFIG;
};

object overhead_line {
	phases CN;
	from node839464839461;
	name 839464;
	longitude 741.90282594;
	to node839466839464;
	length 111;
	latitude 607.90337616;
	configuration 840428-LINECONFIG;
};

object overhead_line {
	phases CN;
	from node839466839464;
	name 839466;
	longitude 741.695563793;
	to node839469839466;
	length 207;
	latitude 613.691079317;
	configuration 840428-LINECONFIG;
};

object overhead_line {
	phases CN;
	from node839469839466;
	name 839469;
	longitude 741.711507035;
	to node839471839469;
	length 226;
	latitude 619.186965509;
	configuration 840428-LINECONFIG;
};

object overhead_line {
	phases CN;
	from node839471839469;
	name 839471;
	longitude 741.823109729;
	to node956777839471;
	length 120;
	latitude 622.105135168;
	configuration 840428-LINECONFIG;
};

object overhead_line {
	phases CN;
	from node956777839471;
	name 956777;
	longitude 743.656582566;
	to node839473956777;
	length 130;
	latitude 623.588538078;
	configuration 840428-LINECONFIG;
};

object overhead_line {
	phases CN;
	from node839473956777;
	name 839473;
	to node839475839473;
	longitude 745.521941887;
	length 226;
	latitude 628.281927613;
	configuration 840428-LINECONFIG;
};

object overhead_line {
	phases CN;
	from node839475839473;
	name 839475;
	longitude 745.219020288;
	to node839477839475;
	length 262;
	latitude 634.458720058;
	configuration 840428-LINECONFIG;
};

object overhead_line {
	phases CN;
	from node839477839475;
	name 839477;
	longitude 746.430706684;
	to node839479839477;
	length 81;
	latitude 636.331212256;
	configuration 840428-LINECONFIG;
};

object overhead_line {
	phases CN;
	from node839479839477;
	name 839479;
	longitude 746.048068875;
	to node839481839479;
	length 243;
	latitude 642.216187736;
	configuration 840428-LINECONFIG;
};

object overhead_line {
	phases CN;
	from node839481839479;
	name 839481;
	longitude 746.223444537;
	to node839483839481;
	length 183;
	latitude 646.666396466;
	configuration 840428-LINECONFIG;
};

object overhead_line {
	phases CN;
	from node839483839481;
	name 839483;
	longitude 746.366933716;
	to node839484839483;
	length 98;
	latitude 649.049568354;
	configuration 840428-LINECONFIG;
};

object overhead_line {
	phases CN;
	from node839484839483;
	name 839484;
	longitude 746.382876958;
	to node839486839484;
	length 10;
	latitude 649.244112998;
	configuration 840428-LINECONFIG;
};

object overhead_line {
	phases CN;
	from node839486839484;
	name 839486;
	longitude 746.94089043;
	to node839488839486;
	length 223;
	latitude 654.594090706;
	configuration 840428-LINECONFIG;
};

object overhead_line {
	phases CN;
	from node839488839486;
	name 839488;
	to node839490839488;
	longitude 748.407668699;
	length 219;
	latitude 659.554979127;
	configuration 840428-LINECONFIG;
};

object overhead_line {
	phases CN;
	from node839490839488;
	name 839490;
	longitude 748.009087648;
	to node839491839490;
	length 178;
	latitude 663.859279374;
	configuration 840428-LINECONFIG;
};

object overhead_line {
	phases CN;
	from node839491839490;
	name 839491;
	longitude 747.451074176;
	to node974130839491;
	length 135;
	latitude 667.020629838;
	configuration 840428-LINECONFIG;
};

object overhead_line {
	phases CN;
	from node974130839491;
	name 974130;
	longitude 746.956833672;
	to node839493974130;
	length 120;
	latitude 669.841527175;
	configuration 840428-LINECONFIG;
};

object overhead_line {
	phases CN;
	from node839493974130;
	name 839493;
	longitude 745.872693212;
	to node839496839493;
	length 261;
	latitude 675.99400154;
	configuration 840428-LINECONFIG;
};

object overhead_line {
	phases CN;
	from node839496839493;
	name 839496;
	longitude 745.649487823;
	to node839497839496;
	length 56;
	latitude 677.307177887;
	configuration 840428-LINECONFIG;
};

object overhead_line {
	phases CN;
	from node839497839496;
	name 839497;
	longitude 744.485631153;
	to node839499839497;
	length 191;
	latitude 681.611478134;
	configuration 840428-LINECONFIG;
};

object overhead_line {
	phases CN;
	from node839499839497;
	name 839499;
	longitude 743.130455578;
	to node839502839499;
	length 223;
	latitude 686.621002716;
	configuration 840428-LINECONFIG;
};

object overhead_line {
	phases CN;
	from node839502839499;
	name 839502;
	to node839503839502;
	longitude 742.253577265;
	length 91;
	latitude 688.906902282;
	configuration 840428-LINECONFIG;
};

object overhead_line {
	phases C;
	from node839503839502;
	name 839503;
	longitude 740.946231416;
	to node839505839503;
	length 134;
	latitude 689.830989341;
	configuration 840428-LINECONFIG;
};

object underground_line {
	phases C;
	from node839505839503;
	name 839505;
	longitude 740.9781179;
	to nodeFFRN1-F008x1839505;
	length 18;
	latitude 690.171442467;
	configuration 906381-LINECONFIG;
};

object fuse {
	phases C;
	from nodeFFRN1-F008x1839505;
	name FFRN1-F008x1;
	current_limit 9999.0 A;
	longitude 740.9781179;
	to node839506FFRN1-F008x1;
	latitude 690.171442467;
};

object underground_line {
	phases C;
	from node839506FFRN1-F008x1;
	name 839506;
	longitude 741.36075571;
	to node839509839506;
	length 65;
	latitude 691.898026182;
	configuration 906381-LINECONFIG;
};

object underground_line {
	phases C;
	from node839509839506;
	name 839509;
	longitude 741.536131372;
	to node839511839509;
	length 136;
	latitude 695.083694727;
	configuration 906381-LINECONFIG;
};

object underground_line {
	phases C;
	from node839511839509;
	name 839511;
	longitude 741.121607079;
	to node839512839511;
	length 53;
	latitude 696.445507235;
	configuration 906381-LINECONFIG;
};

object underground_line {
	phases C;
	from node839512839511;
	name 839512;
	longitude 740.802742238;
	to node839514839512;
	length 206;
	latitude 701.430713736;
	configuration 906381-LINECONFIG;
};

object underground_line {
	phases C;
	from node839514839512;
	name 839514;
	to node910237839514;
	longitude 737.964845151;
	length 184;
	latitude 701.941393426;
	configuration 906381-LINECONFIG;
};

object underground_line {
	phases C;
	from node910237839514;
	name 910237;
	longitude 737.837299215;
	to node906381910237;
	length 129;
	latitude 705.029789649;
	configuration 906381-LINECONFIG;
};

object line_configuration {
	name 906381-LINECONFIG;
	spacing 841826-LINESPACING;
	conductor_C 841826-LINECONFIGunderground_line_conductor393204;
};

object underground_line {
	phases C;
	from node906381910237;
	name 906381;
	longitude 737.805412731;
	to node839516906381;
	length 134;
	latitude 708.288412435;
	configuration 906381-LINECONFIG;
};

object underground_line {
	phases C;
	from node839516906381;
	name 839516;
	longitude 737.805412731;
	to node839517839516;
	length 40;
	latitude 709.261135654;
	configuration 906381-LINECONFIG;
};

object underground_line {
	phases C;
	from node839517839516;
	name 839517;
	longitude 737.773526247;
	to node839519839517;
	length 165;
	latitude 713.273618936;
	configuration 906381-LINECONFIG;
};

object underground_line {
	phases C;
	from node839519839517;
	name 839519;
	longitude 737.741639762;
	to node839521839519;
	length 174;
	latitude 717.504964941;
	configuration 906381-LINECONFIG;
};

object underground_line {
	phases C;
	from node839521839519;
	name 839521;
	longitude 734.839969708;
	to node1806-0087839521;
	length 331;
	latitude 724.216755157;
	configuration 906381-LINECONFIG;
};

object underground_line {
	phases C;
	from node906381910237;
	name 906382;
	to nodeT4303906382;
	longitude 734.664594045;
	length 194;
	latitude 705.200016212;
	configuration 970069-LINECONFIG;
};

object underground_line {
	phases C;
	from node910237839514;
	name 910238;
	longitude 735.079118339;
	to nodeT4006910238;
	length 204;
	latitude 700.603898999;
	configuration 970069-LINECONFIG;
};

object underground_line {
	phases C;
	from node839512839511;
	name 970774;
	longitude 742.046315118;
	to nodeT28678970774;
	length 80;
	latitude 699.339358813;
	configuration 970069-LINECONFIG;
};

object line_configuration {
	name 978204-LINECONFIG;
	spacing 917232-LINESPACING;
	conductor_A 978195-LINECONFIGunderground_line_conductor604;
	conductor_C 978195-LINECONFIGunderground_line_conductor604;
	conductor_B 978195-LINECONFIGunderground_line_conductor604;
};

object underground_line {
	phases ACB;
	from node978174978172;
	name 978204;
	longitude 737.48654789;
	to node978186978204;
	length 66;
	latitude 602.48044421;
	configuration 978204-LINECONFIG;
};

object overhead_line {
	phases ACBN;
	from node978186978204;
	name 978186;
	to node978169978186;
	longitude 733.245645502;
	length 270;
	latitude 602.553398452;
	configuration 978187-LINECONFIG;
};

object overhead_line {
	phases ACBN;
	from node978169978186;
	name 978169;
	longitude 729.530870102;
	to node978180978169;
	length 230;
	latitude 602.602034613;
	configuration 978187-LINECONFIG;
};

object overhead_line {
	phases ACBN;
	from node978180978169;
	name 978180;
	longitude 726.64514329;
	to node978184978180;
	length 180;
	latitude 602.674988854;
	configuration 978187-LINECONFIG;
};

object overhead_line {
	phases ACBN;
	from node978184978180;
	name 978184;
	longitude 723.584040815;
	to node978198978184;
	length 188;
	latitude 602.674988854;
	configuration 978187-LINECONFIG;
};

object overhead_line {
	phases ACBN;
	from node978198978184;
	name 978198;
	longitude 718.801068197;
	to node978173978198;
	length 297;
	latitude 602.723625015;
	configuration 978187-LINECONFIG;
};

object overhead_line {
	phases ACBN;
	from node978173978198;
	name 978173;
	longitude 715.197895492;
	to node978185978173;
	length 225;
	latitude 602.772261176;
	configuration 978187-LINECONFIG;
};

object overhead_line_conductor {
	diameter 0.721;
	name 978185_conductor_B;
	geometric_mean_radius 0.0304;
	resistance 0.216;
};

object overhead_line {
	phases ACBN;
	from node978185978173;
	name 978185;
	longitude 711.594722787;
	to node978190978185;
	length 225;
	latitude 602.845215418;
	configuration 978187-LINECONFIG;
};

object overhead_line {
	phases ACBN;
	from node978190978185;
	name 978190;
	longitude 707.97560684;
	to node978196978190;
	length 225;
	latitude 602.869533498;
	configuration 978187-LINECONFIG;
};

object overhead_line {
	phases ACBN;
	from node978196978190;
	name 978196;
	to node978178978196;
	longitude 704.420263861;
	length 225;
	latitude 602.94248774;
	configuration 978187-LINECONFIG;
};

object overhead_line {
	phases ACBN;
	from node978178978196;
	name 978178;
	longitude 699.956156084;
	to node978171978178;
	length 280;
	latitude 603.088396223;
	configuration 978187-LINECONFIG;
};

object overhead_line {
	phases ACBN;
	from node978171978178;
	name 978171;
	longitude 696.416756347;
	to node978175978171;
	length 250;
	latitude 603.112714303;
	configuration 978187-LINECONFIG;
};

object overhead_line {
	phases ACBN;
	from node978175978171;
	name 978175;
	longitude 692.829526884;
	to node978181978175;
	length 225;
	latitude 603.185668545;
	configuration 978187-LINECONFIG;
};

object overhead_line {
	phases ACBN;
	from node978181978175;
	name 978181;
	longitude 689.242297421;
	to node978197978181;
	length 225;
	latitude 603.258622786;
	configuration 978187-LINECONFIG;
};

object overhead_line {
	phases ACBN;
	from node978197978181;
	name 978197;
	longitude 684.937622065;
	to node978176978197;
	length 225;
	latitude 603.355895108;
	configuration 978187-LINECONFIG;
};

object overhead_line {
	phases ACBN;
	from node978176978197;
	name 978176;
	longitude 681.71708717;
	to node978189978176;
	length 203;
	latitude 603.380213189;
	configuration 978187-LINECONFIG;
};

object overhead_line {
	phases ACBN;
	from node978189978176;
	name 978189;
	longitude 678.480609032;
	to node978202978189;
	length 203;
	latitude 603.501803591;
	configuration 978187-LINECONFIG;
};

object overhead_line {
	phases ACBN;
	from node978202978189;
	name 978202;
	to node978182978202;
	longitude 675.276017378;
	length 203;
	latitude 603.574757832;
	configuration 978187-LINECONFIG;
};

object overhead_line {
	phases BN;
	from node978182978202;
	name 978182;
	longitude 675.1325282;
	to node978177978182;
	length 75;
	latitude 605.44725003;
	configuration 985054-LINECONFIG;
};

object overhead_line {
	phases BN;
	from node978177978182;
	name 978177;
	longitude 675.148471442;
	to node841713978177;
	length 82;
	latitude 607.538604953;
	configuration 985054-LINECONFIG;
};

object overhead_line {
	phases B;
	from node841713978177;
	name 841713;
	longitude 675.164414684;
	to nodeR2909x1841713;
	length 10;
	latitude 607.976330402;
	configuration 985054-LINECONFIG;
};

object fuse {
	phases B;
	from nodeR2909x1841713;
	name R2909x1;
	current_limit 9999.0 A;
	longitude 675.164414684;
	to node841714R2909x1;
	latitude 607.976330402;
};

object overhead_line {
	phases BN;
	from node841714R2909x1;
	name 841714;
	longitude 675.562995735;
	to node841715841714;
	length 509;
	latitude 619.989462165;
	configuration 985054-LINECONFIG;
};

object overhead_line {
	phases BN;
	from node841715841714;
	name 841715;
	longitude 675.562995735;
	to node969649841715;
	length 40;
	latitude 620.962185385;
	configuration 985054-LINECONFIG;
};

object overhead_line {
	phases BN;
	from node969649841715;
	name 969649;
	longitude 675.515166009;
	to node841718969649;
	length 440;
	latitude 631.662140802;
	configuration 985054-LINECONFIG;
};

object overhead_line {
	phases BN;
	from node841718969649;
	name 841718;
	to node841719841718;
	longitude 675.387620073;
	length 1043;
	latitude 657.025898756;
	configuration 985054-LINECONFIG;
};

object overhead_line {
	phases BN;
	from node841719841718;
	name 841719;
	longitude 672.597552712;
	to node841720841719;
	length 290;
	latitude 662.64337535;
	configuration 985054-LINECONFIG;
};

object overhead_line {
	phases BN;
	from node841720841719;
	name 841720;
	longitude 675.435449799;
	to node841722841720;
	length 233;
	latitude 666.291087424;
	configuration 985054-LINECONFIG;
};

object overhead_line {
	phases BN;
	from node841722841720;
	name 841722;
	longitude 675.339790346;
	to node841723841722;
	length 143;
	latitude 669.768572934;
	configuration 985054-LINECONFIG;
};

object overhead_line {
	phases B;
	from node841723841722;
	name 841723;
	longitude 676.535533501;
	to nodeFFRN1-F011x1841723;
	length 75;
	latitude 669.719936773;
	configuration 985054-LINECONFIG;
};

object fuse {
	phases B;
	from nodeFFRN1-F011x1841723;
	name FFRN1-F011x1;
	current_limit 9999.0 A;
	longitude 676.535533501;
	to node841724FFRN1-F011x1;
	latitude 669.719936773;
};

object underground_line {
	phases B;
	from node841724FFRN1-F011x1;
	name 841724;
	longitude 677.826936107;
	to node841725841724;
	length 81;
	latitude 669.744254853;
	configuration 841826-LINECONFIG;
};

object underground_line {
	phases B;
	from node841725841724;
	name 841725;
	longitude 679.979273785;
	to node1806-0099841725;
	length 135;
	latitude 669.768572934;
	configuration 841826-LINECONFIG;
};

object overhead_line {
	phases B;
	from node841723841722;
	name 841739;
	longitude 670.062577225;
	to node1806-28-011841739;
	length 331;
	latitude 669.963117578;
	configuration 985054-LINECONFIG;
};

object overhead_line {
	phases BN;
	from node841723841722;
	name 841740;
	longitude 675.29196062;
	to node841727841740;
	length 356;
	latitude 678.425809589;
	configuration 985054-LINECONFIG;
};

object underground_line {
	phases B;
	from node841727841740;
	name 841727;
	longitude 675.531109251;
	to nodeF18526x1841727;
	length 30;
	latitude 678.401491509;
	configuration 841826-LINECONFIG;
};

object fuse {
	phases B;
	from nodeF18526x1841727;
	name F18526x1;
	current_limit 9999.0 A;
	longitude 675.531109251;
	to node939255F18526x1;
	latitude 678.401491509;
};

object underground_line {
	phases B;
	from node939255F18526x1;
	name 939255;
	longitude 680.011160269;
	to node841728939255;
	length 281;
	latitude 678.498763831;
	configuration 841826-LINECONFIG;
};

object underground_line {
	phases B;
	from node841728939255;
	name 841728;
	longitude 684.060743752;
	to node1806-0098841728;
	length 254;
	latitude 678.304219187;
	configuration 841826-LINECONFIG;
};

object overhead_line {
	phases BN;
	from node841727841740;
	name 939235;
	longitude 675.260074136;
	to node841734939235;
	length 338;
	latitude 685.161917886;
	configuration 985054-LINECONFIG;
};

object underground_line {
	phases B;
	from node841734939235;
	name 841734;
	to nodeF18527x1841734;
	longitude 675.515166009;
	length 16;
	latitude 685.161917886;
	configuration 841826-LINECONFIG;
};

object fuse {
	phases B;
	from nodeF18527x1841734;
	name F18527x1;
	current_limit 9999.0 A;
	longitude 675.515166009;
	to node939275F18527x1;
	latitude 685.161917886;
};

object underground_line {
	phases B;
	from node939275F18527x1;
	name 939275;
	longitude 680.043046754;
	to node841736939275;
	length 312;
	latitude 684.067604264;
	configuration 841826-LINECONFIG;
};

object underground_line {
	phases B;
	from node841736939275;
	name 841736;
	longitude 681.637370959;
	to nodeT18549841736;
	length 126;
	latitude 684.748510518;
	configuration 841826-LINECONFIG;
};

object overhead_line {
	phases BN;
	from node841734939235;
	name 841742;
	longitude 675.196301168;
	to node841744841742;
	length 565;
	latitude 700.385036274;
	configuration 985054-LINECONFIG;
};

object overhead_line {
	phases BN;
	from node841744841742;
	name 841744;
	longitude 675.164414684;
	to node841748841744;
	length 302;
	latitude 707.729096583;
	configuration 985054-LINECONFIG;
};

object overhead_line {
	phases B;
	from node841748841744;
	name 841748;
	longitude 675.068755231;
	to node923535841748;
	length 869;
	latitude 730.053094476;
	configuration 985054-LINECONFIG;
};

object underground_line {
	phases B;
	from node923535841748;
	name 923535;
	longitude 675.451393041;
	to node923536923535;
	length 20;
	latitude 728.472419244;
	configuration 929369-LINECONFIG;
};

object underground_line {
	phases B;
	from node923536923535;
	name 923536;
	longitude 654.023675714;
	to node841999923536;
	length 1275;
	latitude 729.2749159;
	configuration 929369-LINECONFIG;
};

object underground_line {
	phases B;
	from node841999923536;
	name 841999;
	longitude 654.119335167;
	to nodeT10512841999;
	length 510;
	latitude 739.877598995;
	configuration 929369-LINECONFIG;
};

object underground_line {
	phases B;
	from node841999923536;
	name 923537;
	longitude 648.714576109;
	to nodeT10513923537;
	length 465;
	latitude 737.64033559;
	configuration 929369-LINECONFIG;
};

object underground_line {
	phases B;
	from node841999923536;
	name 923538;
	longitude 630.268245048;
	to node841997923538;
	length 1385;
	latitude 727.2808333;
	configuration 929369-LINECONFIG;
};

object underground_line {
	phases B;
	from node841997923538;
	name 841997;
	longitude 627.239029057;
	to nodeT10515841997;
	length 1271;
	latitude 695.618692498;
	configuration 929369-LINECONFIG;
};

object underground_line {
	phases B;
	from node923536923535;
	name 923594;
	to node923593923594;
	longitude 677.157319941;
	length 134;
	latitude 729.931504073;
	configuration 929369-LINECONFIG;
};

object overhead_line {
	phases BN;
	from node923593923594;
	name 923593;
	longitude 681.477938539;
	to node841751923593;
	length 304;
	latitude 729.76127751;
	configuration 985054-LINECONFIG;
};

object underground_line {
	phases B;
	from node841751923593;
	name 841751;
	longitude 682.817170872;
	to nodeFFRN1-F081x1841751;
	length 104;
	latitude 728.2778746;
	configuration 929369-LINECONFIG;
};

object fuse {
	phases B;
	from nodeFFRN1-F081x1841751;
	name FFRN1-F081x1;
	current_limit 9999.0 A;
	longitude 682.817170872;
	to node841752FFRN1-F081x1;
	latitude 728.2778746;
};

object underground_line {
	phases B;
	from node841752FFRN1-F081x1;
	name 841752;
	longitude 682.737454661;
	to node1806-0198841752;
	length 604;
	latitude 713.589753982;
	configuration 929369-LINECONFIG;
};

object overhead_line {
	phases BN;
	from node841751923593;
	name 841754;
	longitude 682.609908725;
	to node841755841754;
	length 71;
	latitude 729.688323268;
	configuration 985054-LINECONFIG;
};

object overhead_line {
	phases BN;
	from node841755841754;
	name 841755;
	to node841757841755;
	longitude 685.926103073;
	length 208;
	latitude 729.542414785;
	configuration 985054-LINECONFIG;
};

object overhead_line {
	phases BN;
	from node841757841755;
	name 841757;
	longitude 691.251145921;
	to node841759841757;
	length 334;
	latitude 729.2749159;
	configuration 985054-LINECONFIG;
};

object overhead_line {
	phases BN;
	from node841759841757;
	name 841759;
	longitude 696.863167125;
	to node841760841759;
	length 352;
	latitude 729.007417015;
	configuration 985054-LINECONFIG;
};

object overhead_line {
	phases BN;
	from node841760841759;
	name 841760;
	longitude 700.211247957;
	to node841762841760;
	length 210;
	latitude 728.861508532;
	configuration 985054-LINECONFIG;
};

object overhead_line {
	phases BN;
	from node841762841760;
	name 841762;
	longitude 700.705488461;
	to node841763841762;
	length 31;
	latitude 728.837190451;
	configuration 985054-LINECONFIG;
};

object underground_line {
	phases B;
	from node841763841762;
	name 841763;
	longitude 700.705488461;
	to nodeFFRN1-F140x1841763;
	length 18;
	latitude 729.2749159;
	configuration 929369-LINECONFIG;
};

object fuse {
	phases B;
	from nodeFFRN1-F140x1841763;
	name FFRN1-F140x1;
	current_limit 9999.0 A;
	longitude 700.705488461;
	to node841764FFRN1-F140x1;
	latitude 729.2749159;
};

object underground_line {
	phases B;
	from node841764FFRN1-F140x1;
	name 841764;
	longitude 700.641715493;
	to node1806-0062841764;
	length 400;
	latitude 739.002148097;
	configuration 929369-LINECONFIG;
};

object overhead_line {
	phases BN;
	from node841763841762;
	name 841766;
	longitude 706.317509666;
	to node841767841766;
	length 352;
	latitude 728.545373485;
	configuration 985054-LINECONFIG;
};

object underground_line {
	phases B;
	from node841767841766;
	name 841767;
	longitude 706.34939615;
	to nodeFFRN1-F176x1841767;
	length 54;
	latitude 727.232197139;
	configuration 929369-LINECONFIG;
};

object fuse {
	phases B;
	from nodeFFRN1-F176x1841767;
	name FFRN1-F176x1;
	current_limit 9999.0 A;
	longitude 706.34939615;
	to node841768FFRN1-F176x1;
	latitude 727.232197139;
};

object underground_line {
	phases B;
	from node841768FFRN1-F176x1;
	name 841768;
	longitude 706.604488023;
	to node1806-0088841768;
	length 577;
	latitude 713.200664694;
	configuration 929369-LINECONFIG;
};

object overhead_line {
	phases BN;
	from node841767841766;
	name 841770;
	to node923342841770;
	longitude 711.77009845;
	length 342;
	latitude 728.2778746;
	configuration 985054-LINECONFIG;
};

object overhead_line {
	phases BN;
	from node923342841770;
	name 923342;
	longitude 713.938379369;
	to node841771923342;
	length 136;
	latitude 728.180602278;
	configuration 985054-LINECONFIG;
};

object underground_line {
	phases B;
	from node841771923342;
	name 841771;
	longitude 717.063254813;
	to nodeFFRN1-F196x1841771;
	length 197;
	latitude 727.767194909;
	configuration 929369-LINECONFIG;
};

object fuse {
	phases B;
	from nodeFFRN1-F196x1841771;
	name FFRN1-F196x1;
	current_limit 9999.0 A;
	longitude 717.063254813;
	to node841772FFRN1-F196x1;
	latitude 727.767194909;
};

object underground_line {
	phases B;
	from node841772FFRN1-F196x1;
	name 841772;
	longitude 717.206743991;
	to node1806-0190841772;
	length 210;
	latitude 722.660398006;
	configuration 929369-LINECONFIG;
};

object overhead_line {
	phases BN;
	from node841771923342;
	name 841775;
	to node926654841775;
	longitude 714.01809558;
	length 1192;
	latitude 699.19345033;
	configuration 985054-LINECONFIG;
};

object overhead_line {
	phases B;
	from node926654841775;
	name 926654;
	longitude 714.129698274;
	to node1806-33-057926654;
	length 1630;
	latitude 659.554979127;
	configuration 985054-LINECONFIG;
};

object underground_line {
	phases B;
	from node841755841754;
	name 841777;
	longitude 682.625851967;
	to nodeFFRN1-F217x1841777;
	length 96;
	latitude 730.126048717;
	configuration 929369-LINECONFIG;
};

object fuse {
	phases B;
	from nodeFFRN1-F217x1841777;
	name FFRN1-F217x1;
	current_limit 9999.0 A;
	longitude 682.625851967;
	to node841778FFRN1-F217x1;
	latitude 730.126048717;
};

object underground_line {
	phases B;
	from node841778FFRN1-F217x1;
	name 841778;
	longitude 682.609908725;
	to node1806-0245841778;
	length 646;
	latitude 747.732338994;
	configuration 929369-LINECONFIG;
};

object underground_line {
	phases B;
	from node923536923535;
	name 923596;
	longitude 675.531109251;
	to node923597923596;
	length 165;
	latitude 734.916710574;
	configuration 929369-LINECONFIG;
};

object underground_line {
	phases B;
	from node923597923596;
	name 923597;
	longitude 676.009406513;
	to nodeT10500923597;
	length 20;
	latitude 736.035342277;
	configuration 929369-LINECONFIG;
};

object underground_line {
	phases B;
	from node923597923596;
	name 923599;
	longitude 674.797720116;
	to node923601923599;
	length 300;
	latitude 743.768491874;
	configuration 929369-LINECONFIG;
};

object underground_line {
	phases B;
	from node923601923599;
	name 923601;
	longitude 671.369923074;
	to nodeT10502923601;
	length 200;
	latitude 742.965995217;
	configuration 929369-LINECONFIG;
};

object underground_line {
	phases B;
	from node923601923599;
	name 923604;
	longitude 674.702060664;
	to node923605923604;
	length 275;
	latitude 752.741863576;
	configuration 929369-LINECONFIG;
};

object underground_line {
	phases B;
	from node923605923604;
	name 923605;
	longitude 671.210490653;
	to node921618923605;
	length 239;
	latitude 753.130952863;
	configuration 929369-LINECONFIG;
};

object underground_line {
	phases B;
	from node921618923605;
	name 921618;
	longitude 666.363745068;
	to node921620921618;
	length 352;
	latitude 753.009362461;
	configuration 929369-LINECONFIG;
};

object underground_line {
	phases B;
	from node921620921618;
	name 921620;