

!!!master.dss
clear
new object=circuit.ckt7


! redirect vsource.dss
! redirect 25607\branches.dss
! redirect 25607\transformers.dss
! redirect 25607\loads.dss
! redirect 25607\capacitors.dss
! makebuslist
! redirect busvoltagebases.dss ! set voltage bases
! buscoords buscoords.dss
! giscoords giscoords.dss


!!!loadshape.dss
new object=loadshape.default npts=24 interval=1 mult=[0.677,0.6256,0.6087,0.5833,0.58028,0.6025,0.657,0.7477,0.832,0.88,0.94,0.989,0.985,0.98,0.9898,0.999,1,0.958,0.936,0.913,0.876,0.876,0.828,0.756]
new object=loadshape.25607 npts=8760 interval=1 mult=[0.660998,0.615646,0.649093,0.656463,0.659864,0.669501,0.6661,0.654762,0.630952,0.603175,0.603741,0.617347,0.554989,0.510204,0.484694,0.518141,0.47619,0.468821,0.578231,0.592404,0.550454,0.552154,0.503968,0.503401,0.44898,0.443878,0.477891,0.464853,0.475057,0.468821,0.530045,0.501134,0.528345,0.524943,0.528912,0.515873,0.486961,0.506236,0.486395,0.465419,0.43254,0.446145,0.482993,0.473356,0.497166,0.447279,0.466553,0.447846,0.417234,0.412698,0.395125,0.393991,0.379252,0.378118,0.401927,0.414399,0.404762,0.410998,0.452381,0.444444,0.459184,0.424036,0.424036,0.426304,0.430272,0.404762,0.484127,0.486961,0.47619,0.42517,0.438209,0.409297,0.387755,0.386054,0.382653,0.361111,0.381519,0.376984,0.39966,0.386054,0.379819,0.389456,0.426871,0.442177,0.398526,0.412698,0.410998,0.449546,0.446712,0.508503,0.541383,0.548753,0.539116,0.544785,0.526077,0.534014,0.512472,0.466553,0.505102,0.47449,0.502268,0.546485,0.580499,0.662698,0.64229,0.680272,0.696712,0.713152,0.738095,0.695578,0.689342,0.722789,0.721088,0.743197,0.781746,0.75,0.69898,0.686508,0.663265,0.637755,0.620181,0.586735,0.577664,0.538549,0.541383,0.577098,0.629819,0.616213,0.677438,0.654195,0.713152,0.688209,0.685374,0.659864,0.672336,0.612812,0.64229,0.672336,0.644558,0.651361,0.641723,0.590703,0.598073,0.557823,0.520975,0.527211,0.477324,0.53288,0.515306,0.547052,0.62415,0.647959,0.656463,0.646258,0.662132,0.62585,0.598073,0.599773,0.566326,0.557256,0.530045,0.570862,0.622449,0.578231,0.5839,0.565193,0.538549,0.518707,0.475057,0.496032,0.485828,0.489796,0.467687,0.498299,0.562358,0.566893,0.590136,0.572562,0.597506,0.626017,0.565193,0.562925,0.540249,0.529478,0.522676,0.527211,0.620181,0.608277,0.620748,0.578231,0.599773,0.582766,0.534014,0.527778,0.520975,0.529478,0.561224,0.575964,0.638322,0.667234,0.657029,0.646258,0.661565,0.579365,0.575397,0.562358,0.556122,0.52381,0.502268,0.493197,0.548186,0.513605,0.502268,0.464853,0.463152,0.479025,0.438775,0.427438,0.413265,0.401361,0.387188,0.395125,0.412132,0.428571,0.398526,0.431973,0.458617,0.460317,0.489229,0.477324,0.511905,0.52381,0.535147,0.602608,0.615646,0.587302,0.634921,0.604308,0.615646,0.593537,0.568594,0.542517,0.557823,0.55839,0.551587,0.585034,0.59127,0.633787,0.613946,0.650227,0.619614,0.602041,0.544218,0.558957,0.531746,0.497732,0.479025,0.515306,0.604308,0.60771,0.612812,0.673469,0.62585,0.615646,0.566893,0.61678,0.577664,0.54195,0.559524,0.607143,0.6678,0.687642,0.685374,0.656463,0.693878,0.651361,0.610544,0.596939,0.579932,0.570862,0.531179,0.537982,0.616213,0.598639,0.592404,0.557256,0.554989,0.544218,0.530612,0.541383,0.496599,0.484127,0.494331,0.511338,0.543651,0.624717,0.638889,0.668934,0.674036,0.687075,0.660431,0.642857,0.645692,0.606009,0.629252,0.67517,0.719388,0.729025,0.726757,0.74093,0.692744,0.6661,0.633787,0.615079,0.623016,0.608277,0.64059,0.672902,0.708617,0.760204,0.719955,0.73356,0.725624,0.654195,0.632653,0.610544,0.624717,0.584467,0.577097,0.588435,0.671202,0.633787,0.627551,0.599773,0.642857,0.62585,0.61678,0.647392,0.64059,0.645692,0.636054,0.683673,0.774376,0.82483,0.819728,0.845805,0.864512,0.820295,0.807823,0.821429,0.790816,0.791383,0.865079,0.881519,0.894558,0.888322,0.89229,0.8339,0.871882,0.785147,0.799887,0.767574,0.785147,0.778345,0.834467,0.825964,0.851474,0.918367,0.888889,0.887188,0.891156,0.893424,0.863379,0.853175,0.824263,0.824263,0.85034,0.857143,0.849206,0.877551,0.843537,0.847506,0.803288,0.768141,0.789683,0.753968,0.76644,0.732426,0.729025,0.743197,0.737528,0.714286,0.730159,0.730159,0.776077,0.713719,0.695578,0.660431,0.691043,0.646825,0.684807,0.687075,0.72449,0.691043,0.683107,0.653061,0.617347,0.626417,0.588435,0.586168,0.535147,0.60941,0.581066,0.606009,0.611678,0.577097,0.619048,0.621882,0.590136,0.570295,0.557823,0.485828,0.482993,0.48356,0.452381,0.484127,0.568594,0.530612,0.59127,0.574263,0.552154,0.519274,0.531179,0.50737,0.502834,0.499433,0.494331,0.54195,0.620181,0.633787,0.634921,0.676871,0.701247,0.694444,0.659864,0.653061,0.630385,0.618481,0.59127,0.60034,0.729592,0.686508,0.719388,0.705782,0.668367,0.615646,0.640023,0.610544,0.590136,0.607143,0.607143,0.641723,0.71712,0.770408,0.763039,0.759637,0.778345,0.779478,0.784581,0.688775,0.716553,0.718821,0.730159,0.735261,0.805556,0.811791,0.809524,0.780612,0.787415,0.743764,0.697279,0.648526,0.649093,0.705782,0.712018,0.714286,0.794785,0.769841,0.755102,0.789683,0.753401,0.729025,0.674036,0.647392,0.635488,0.600907,0.60941,0.650794,0.698413,0.676304,0.683107,0.689342,0.61678,0.647959,0.623016,0.604875,0.581633,0.586735,0.622449,0.589002,0.663832,0.714286,0.693311,0.685941,0.6661,0.631519,0.602608,0.542517,0.54195,0.503401,0.500567,0.482993,0.575397,0.536281,0.539116,0.530612,0.494331,0.498866,0.453515,0.424603,0.44898,0.423469,0.447846,0.444444,0.53458,0.538549,0.570295,0.511905,0.532313,0.528912,0.505102,0.503401,0.482993,0.464853,0.477324,0.458617,0.485261,0.496032,0.495465,0.478458,0.480726,0.456349,0.442177,0.481859,0.463719,0.479025,0.518141,0.527211,0.575964,0.571429,0.611111,0.599206,0.621882,0.621315,0.588435,0.589569,0.559524,0.521542,0.529478,0.589569,0.652494,0.672902,0.6678,0.662132,0.674603,0.649093,0.637188,0.651361,0.644558,0.651927,0.653628,0.641156,0.701814,0.691043,0.712585,0.699546,0.714286,0.688209,0.637755,0.672336,0.642857,0.649093,0.619614,0.618481,0.735261,0.718254,0.735828,0.710317,0.665533,0.636054,0.612812,0.610544,0.578798,0.585601,0.60771,0.661565,0.704082,0.712018,0.702948,0.739796,0.722222,0.743764,0.690476,0.685374,0.657596,0.670635,0.660998,0.674603,0.755102,0.741497,0.748299,0.677438,0.672336,0.636621,0.613946,0.597506,0.613379,0.600907,0.600907,0.614512,0.689342,0.74263,0.695011,0.748866,0.70805,0.712585,0.707483,0.719955,0.719955,0.700113,0.679705,0.736961,0.729592,0.701247,0.672336,0.680272,0.658163,0.606009,0.603175,0.611678,0.590703,0.593537,0.604875,0.613379,0.676871,0.711451,0.747732,0.709751,0.753968,0.783447,0.750567,0.745465,0.75,0.732426,0.713719,0.732993,0.787415,0.771542,0.770975,0.767007,0.739796,0.704082,0.665533,0.654195,0.65873,0.668934,0.663832,0.679705,0.711451,0.706349,0.749433,0.761905,0.746599,0.744331,0.713152,0.674603,0.649093,0.590703,0.623583,0.648526,0.702381,0.731859,0.692744,0.701814,0.652494,0.655329,0.637755,0.605442,0.611111,0.582766,0.596939,0.64966,0.686508,0.740363,0.719955,0.709751,0.687075,0.685941,0.627551,0.625283,0.589569,0.612245,0.547052,0.579365,0.622449,0.630385,0.628118,0.618481,0.657596,0.612245,0.628685,0.604308,0.611678,0.629252,0.630385,0.60034,0.610544,0.619048,0.636054,0.63322,0.622449,0.564626,0.561791,0.505102,0.452948,0.47449,0.454082,0.460884,0.519274,0.534014,0.537982,0.539116,0.551587,0.511905,0.531179,0.515306,0.486961,0.475624,0.489796,0.500567,0.515306,0.524943,0.562925,0.560658,0.515306,0.536848,0.462018,0.455215,0.44898,0.443878,0.435941,0.475624,0.493764,0.484127,0.518141,0.467687,0.451247,0.460884,0.441043,0.448413,0.48356,0.443311,0.478458,0.484127,0.580499,0.633787,0.611111,0.64229,0.61678,0.606576,0.592404,0.56746,0.581066,0.524943,0.550454,0.555556,0.617347,0.619614,0.634354,0.64229,0.606576,0.581633,0.589002,0.5839,0.59127,0.575397,0.589569,0.614512,0.693878,0.70068,0.672336,0.672336,0.704649,0.706349,0.695011,0.699546,0.6678,0.634921,0.634354,0.671202,0.780045,0.765306,0.772676,0.774376,0.722222,0.710317,0.672336,0.696712,0.651927,0.719955,0.692744,0.72619,0.796485,0.801587,0.823696,0.812358,0.787982,0.756803,0.734127,0.711451,0.659297,0.667234,0.637755,0.708617,0.780612,0.746032,0.761338,0.762472,0.702381,0.731293,0.737528,0.69898,0.693878,0.677438,0.696145,0.709751,0.786281,0.780612,0.786281,0.788549,0.784014,0.749433,0.693311,0.662132,0.63322,0.640023,0.617347,0.573129,0.657029,0.693311,0.653061,0.654195,0.638889,0.603741,0.575397,0.530045,0.55102,0.539116,0.547052,0.589569,0.636054,0.646258,0.56746,0.644558,0.616213,0.59127,0.56576,0.545351,0.537415,0.515873,0.484127,0.468821,0.507936,0.489229,0.478458,0.477891,0.479025,0.446712,0.436508,0.455782,0.420068,0.403061,0.434807,0.414966,0.442744,0.419501,0.428005,0.466553,0.477324,0.477891,0.450113,0.446712,0.428571,0.43254,0.40873,0.417234,0.480159,0.493197,0.463719,0.468254,0.463152,0.403628,0.404762,0.414966,0.397392,0.409297,0.381519,0.383787,0.414966,0.395125,0.407029,0.401361,0.454082,0.443311,0.433107,0.437642,0.455215,0.425737,0.413832,0.390023,0.475057,0.473923,0.486395,0.44898,0.442177,0.43254,0.394558,0.374717,0.370181,0.394558,0.380952,0.383787,0.482993,0.469955,0.485261,0.543651,0.523243,0.5,0.539683,0.502834,0.47619,0.503401,0.480726,0.449546,0.52551,0.497166,0.475624,0.498866,0.45068,0.429138,0.397959,0.38322,0.378118,0.361111,0.387188,0.40873,0.489796,0.461451,0.472222,0.506803,0.49093,0.526644,0.547052,0.518141,0.505102,0.47449,0.462585,0.451814,0.509637,0.493197,0.492063,0.470522,0.443878,0.393991,0.429705,0.394558,0.371315,0.376984,0.362812,0.390023,0.480726,0.489796,0.462585,0.505102,0.519841,0.514739,0.501134,0.518141,0.505102,0.492063,0.452381,0.446712,0.510204,0.489229,0.508503,0.479592,0.477324,0.410998,0.413832,0.403061,0.393991,0.380385,0.387188,0.439342,0.510204,0.526077,0.524376,0.506236,0.564626,0.544785,0.496032,0.517574,0.477324,0.480159,0.488095,0.462585,0.531179,0.526077,0.514739,0.510771,0.494331,0.453515,0.443878,0.394558,0.414966,0.413832,0.4178,0.443878,0.509637,0.551587,0.557823,0.553855,0.589569,0.534014,0.535147,0.497732,0.492063,0.497732,0.469955,0.486395,0.528345,0.492063,0.48356,0.462585,0.464853,0.45068,0.420068,0.424603,0.39059,0.412698,0.384921,0.404195,0.462585,0.420635,0.410998,0.47619,0.5,0.46712,0.457483,0.462585,0.422336,0.43424,0.412698,0.44161,0.511338,0.539116,0.561791,0.538549,0.523243,0.524943,0.53288,0.518707,0.515306,0.517007,0.526644,0.503968,0.521542,0.519841,0.564059,0.559524,0.532313,0.519274,0.491497,0.512472,0.49093,0.449546,0.455782,0.497732,0.56746,0.611678,0.56576,0.59127,0.607143,0.576531,0.556122,0.547052,0.547052,0.52381,0.528912,0.570295,0.633787,0.63322,0.615646,0.65873,0.72619,0.671769,0.630952,0.601474,0.578798,0.560658,0.528345,0.537415,0.571429,0.623583,0.620748,0.596939,0.623016,0.60771,0.603741,0.588435,0.573129,0.561224,0.578231,0.593537,0.586168,0.647392,0.65873,0.63322,0.645125,0.654195,0.646825,0.648526,0.613946,0.595238,0.645125,0.607143,0.712018,0.702948,0.665533,0.622449,0.586735,0.552154,0.52381,0.509637,0.479025,0.453515,0.488662,0.493197,0.528912,0.545918,0.505669,0.505102,0.529478,0.537415,0.553855,0.485261,0.49093,0.50737,0.495465,0.457483,0.49263,0.552154,0.522676,0.482426,0.494331,0.457483,0.478458,0.464286,0.47619,0.443311,0.484694,0.503968,0.606576,0.619048,0.636054,0.637188,0.664966,0.65873,0.612812,0.608844,0.594671,0.531746,0.575964,0.520975,0.63322,0.675737,0.64059,0.680272,0.656463,0.624717,0.616213,0.604308,0.602608,0.553288,0.603175,0.628685,0.706349,0.70068,0.676871,0.693878,0.664966,0.608844,0.60771,0.561791,0.553288,0.528345,0.511338,0.534581,0.572562,0.623016,0.575964,0.590136,0.561791,0.551587,0.522676,0.489796,0.49263,0.510204,0.52551,0.515873,0.579365,0.521542,0.557823,0.570862,0.603175,0.55839,0.585034,0.587302,0.549887,0.570295,0.573129,0.57483,0.654195,0.651927,0.659297,0.654195,0.635488,0.661565,0.632653,0.634354,0.615646,0.628685,0.630385,0.616213,0.629252,0.635488,0.636621,0.645692,0.630952,0.603175,0.570295,0.582766,0.570295,0.560658,0.484127,0.531746,0.597506,0.629819,0.6661,0.643991,0.637755,0.615079,0.62585,0.593537,0.589002,0.590136,0.614512,0.645692,0.69898,0.717687,0.69161,0.687642,0.621882,0.672902,0.617914,0.592404,0.574263,0.575397,0.532313,0.53288,0.60034,0.615079,0.628685,0.598073,0.611111,0.594104,0.53458,0.550454,0.511338,0.531746,0.564626,0.564626,0.612812,0.651361,0.615079,0.636621,0.62415,0.612812,0.598073,0.584467,0.5839,0.562925,0.511905,0.511905,0.538549,0.581633,0.613379,0.575964,0.555556,0.505669,0.496599,0.471655,0.464853,0.466553,0.468254,0.482426,0.53288,0.552154,0.548753,0.595238,0.57483,0.592971,0.540249,0.532313,0.52381,0.541383,0.481859,0.518141,0.537415,0.553855,0.547052,0.519841,0.509637,0.488095,0.433673,0.452381,0.439909,0.433107,0.426304,0.43424,0.469955,0.46712,0.501701,0.530612,0.541383,0.52551,0.526644,0.522676,0.509637,0.503968,0.485261,0.490363,0.511338,0.526644,0.513039,0.526077,0.514739,0.45805,0.447279,0.425737,0.409864,0.395125,0.384354,0.415533,0.472789,0.452381,0.492063,0.486395,0.496032,0.497166,0.495465,0.49093,0.463152,0.496599,0.448413,0.443878,0.493197,0.52381,0.528345,0.50907,0.489229,0.46712,0.496032,0.455782,0.480159,0.49263,0.484127,0.506236,0.503401,0.51644,0.554989,0.590136,0.619614,0.613946,0.645125,0.676304,0.675737,0.665533,0.687642,0.632653,0.718254,0.746599,0.752834,0.762472,0.695011,0.681406,0.687642,0.674036,0.647392,0.655329,0.660998,0.696712,0.680839,0.683107,0.697846,0.696712,0.75,0.705215,0.68424,0.666667,0.639456,0.632086,0.603741,0.609977,0.652494,0.704082,0.714853,0.704082,0.690476,0.673469,0.662698,0.644558,0.68424,0.631519,0.668367,0.692744,0.718254,0.736395,0.721655,0.734694,0.730159,0.723356,0.664399,0.658163,0.664399,0.617914,0.585034,0.615646,0.671769,0.709751,0.722789,0.700113,0.722789,0.666667,0.680839,0.64229,0.641723,0.641723,0.692177,0.688209,0.752834,0.719955,0.773809,0.771542,0.744898,0.650227,0.642857,0.657596,0.616213,0.600907,0.625283,0.56576,0.650227,0.67517,0.665533,0.664966,0.657029,0.626984,0.610544,0.590703,0.580499,0.568027,0.586735,0.636621,0.658163,0.623583,0.622449,0.641723,0.619614,0.598639,0.554422,0.560658,0.534014,0.529478,0.518141,0.505102,0.559524,0.561791,0.564626,0.529478,0.560658,0.497166,0.469388,0.445011,0.440476,0.476757,0.469388,0.477324,0.487528,0.495465,0.503401,0.539683,0.56746,0.531179,0.519274,0.501134,0.501134,0.485828,0.513605,0.489796,0.48356,0.520975,0.50907,0.520408,0.479592,0.463719,0.439342,0.418934,0.424603,0.391156,0.435941,0.419501,0.479592,0.444444,0.482993,0.505102,0.529478,0.50737,0.502834,0.513605,0.512472,0.48356,0.495465,0.479025,0.478458,0.501701,0.519274,0.471088,0.440476,0.455215,0.421202,0.424036,0.413265,0.412698,0.411565,0.403061,0.43254,0.393424,0.413832,0.447279,0.456916,0.477891,0.453515,0.455782,0.481293,0.456349,0.438209,0.429138,0.455782,0.484694,0.520975,0.476757,0.459184,0.429705,0.418367,0.415533,0.400227,0.400794,0.404195,0.416667,0.4178,0.402494,0.43254,0.456349,0.47619,0.455215,0.469955,0.455782,0.514739,0.511905,0.50737,0.494331,0.522109,0.536848,0.498866,0.505102,0.457483,0.434807,0.425737,0.397959,0.391156,0.370181,0.396825,0.429705,0.455215,0.438209,0.462585,0.518707,0.518141,0.520975,0.563492,0.558957,0.557823,0.542517,0.539683,0.527778,0.53458,0.578798,0.555556,0.515873,0.518141,0.469955,0.449546,0.425737,0.422336,0.413265,0.429705,0.459184,0.514739,0.49093,0.513605,0.514172,0.538549,0.528912,0.550454,0.561224,0.559524,0.552154,0.560091,0.54195,0.539116,0.5822,0.571995,0.545918,0.510204,0.470522,0.45805,0.421769,0.400794,0.383787,0.428571,0.421202,0.435941,0.466553,0.478458,0.5,0.53458,0.530612,0.53288,0.566327,0.55102,0.547052,0.611678,0.579365,0.595805,0.621882,0.629819,0.592404,0.553855,0.547052,0.546485,0.503401,0.490363,0.501701,0.575964,0.601474,0.644558,0.647392,0.683107,0.704082,0.677438,0.713152,0.692177,0.710884,0.709751,0.653061,0.664966,0.692177,0.67517,0.712585,0.694444,0.667234,0.642857,0.634921,0.574263,0.556122,0.577664,0.606576,0.570862,0.634354,0.681406,0.646825,0.681406,0.70805,0.652494,0.641156,0.650794,0.641723,0.63322,0.576531,0.603175,0.579365,0.621315,0.606009,0.615079,0.566893,0.54932,0.524376,0.52551,0.498866,0.520975,0.491497,0.495465,0.540816,0.543651,0.548186,0.539683,0.572562,0.566327,0.510204,0.55102,0.502834,0.502834,0.456916,0.435941,0.487528,0.496599,0.546485,0.506236,0.486395,0.471655,0.470522,0.462585,0.447279,0.420068,0.4178,0.428571,0.443311,0.459751,0.460884,0.448413,0.485828,0.493764,0.446712,0.497732,0.475057,0.453515,0.437642,0.439342,0.47619,0.49263,0.506236,0.488662,0.49093,0.477891,0.43254,0.406463,0.404762,0.393424,0.397959,0.455782,0.457483,0.489796,0.465419,0.514739,0.512472,0.539683,0.527778,0.513039,0.491497,0.507936,0.467687,0.431406,0.439342,0.435941,0.505102,0.502268,0.471655,0.460884,0.423469,0.431406,0.39966,0.39966,0.43254,0.449546,0.481859,0.463152,0.502268,0.541383,0.51644,0.535147,0.514739,0.476757,0.497732,0.476757,0.460317,0.456349,0.409297,0.446712,0.481293,0.473923,0.459751,0.433107,0.418934,0.407596,0.385488,0.375283,0.401361,0.39229,0.449546,0.44898,0.471088,0.496599,0.51644,0.492063,0.494331,0.546485,0.532313,0.537982,0.531746,0.522676,0.497166,0.445578,0.503401,0.481293,0.472222,0.42517,0.394558,0.382086,0.372449,0.362812,0.343537,0.391723,0.430839,0.426304,0.439909,0.446712,0.504535,0.462018,0.464286,0.48356,0.451814,0.437642,0.435374,0.418367,0.395125,0.416667,0.489796,0.464286,0.455782,0.456349,0.422902,0.402494,0.409864,0.397959,0.375283,0.405896,0.485261,0.462018,0.475624,0.502268,0.526644,0.497166,0.48356,0.489229,0.468254,0.463719,0.445011,0.4178,0.412698,0.400794,0.477324,0.460884,0.468254,0.439342,0.430839,0.400794,0.426304,0.418934,0.373583,0.407596,0.438775,0.442177,0.424603,0.433107,0.466553,0.482993,0.496032,0.46712,0.468254,0.440476,0.403628,0.395692,0.393991,0.44898,0.473356,0.456349,0.430839,0.429705,0.433107,0.431973,0.438209,0.410998,0.422336,0.391156,0.431406,0.422902,0.428571,0.455215,0.443878,0.438776,0.428571,0.422336,0.52381,0.504535,0.491497,0.488095,0.490363,0.439342,0.461451,0.46712,0.434807,0.422336,0.406463,0.388322,0.358277,0.370181,0.383787,0.39966,0.407596,0.465986,0.444444,0.475057,0.491497,0.500567,0.496599,0.470522,0.466553,0.463719,0.446145,0.444444,0.438209,0.433673,0.510771,0.470522,0.469955,0.439342,0.4161,0.386054,0.361678,0.370181,0.35771,0.386054,0.43254,0.449546,0.444444,0.451814,0.473356,0.494331,0.470522,0.502268,0.501701,0.492063,0.49093,0.462018,0.472789,0.465986,0.496032,0.465986,0.447279,0.428571,0.395125,0.358844,0.360544,0.375283,0.382653,0.388889,0.4178,0.456349,0.435941,0.442177,0.485828,0.456349,0.469388,0.475624,0.472222,0.475624,0.45068,0.442177,0.414966,0.437075,0.478458,0.481293,0.464853,0.433107,0.415533,0.39059,0.35034,0.363946,0.362245,0.371882,0.431973,0.456349,0.442744,0.452381,0.485828,0.468254,0.49093,0.477891,0.453515,0.478458,0.485828,0.473356,0.429705,0.43424,0.482426,0.44898,0.445011,0.405329,0.399093,0.391156,0.367347,0.385488,0.370748,0.389456,0.4161,0.441043,0.453515,0.459184,0.462585,0.501134,0.518707,0.488662,0.477891,0.484694,0.458617,0.426871,0.414966,0.434807,0.45068,0.454649,0.450113,0.404195,0.419501,0.386621,0.369048,0.349206,0.375283,0.369048,0.373016,0.379252,0.387755,0.393991,0.403628,0.395125,0.424036,0.411565,0.410998,0.405329,0.412132,0.397392,0.407596,0.442177,0.490363,0.507936,0.479025,0.515873,0.489796,0.501134,0.486395,0.444444,0.452948,0.455215,0.47449,0.454082,0.480726,0.517007,0.504535,0.50737,0.484127,0.475057,0.433107,0.415533,0.392857,0.407029,0.367914,0.4178,0.467687,0.482993,0.47449,0.479025,0.422902,0.421202,0.4161,0.457483,0.445011,0.460884,0.517007,0.484127,0.486395,0.517574,0.566327,0.520408,0.513039,0.514739,0.460884,0.46712,0.449546,0.430839,0.448413,0.440476,0.484694,0.47449,0.460884,0.44161,0.412698,0.381519,0.38322,0.382086,0.371882,0.384921,0.435374,0.435941,0.430839,0.459751,0.502834,0.497166,0.475057,0.486961,0.473923,0.445011,0.454649,0.42517,0.435374,0.419501,0.460317,0.452948,0.439909,0.412132,0.39229,0.395125,0.386621,0.391156,0.387755,0.423469,0.476757,0.496032,0.473923,0.497166,0.518707,0.48356,0.518141,0.460317,0.459184,0.464286,0.464286,0.437075,0.462018,0.438775,0.49263,0.461451,0.447846,0.449546,0.395125,0.361678,0.362812,0.369615,0.368481,0.38322,0.429705,0.437642,0.439342,0.460884,0.498866,0.494331,0.518141,0.540816,0.477324,0.467687,0.464853,0.459751,0.472789,0.469388,0.494898,0.482993,0.445011,0.408163,0.401361,0.4161,0.385488,0.36678,0.393424,0.409864,0.49263,0.524376,0.556122,0.545351,0.520975,0.526077,0.50907,0.499433,0.492063,0.484127,0.451814,0.391156,0.417234,0.409864,0.485828,0.473356,0.444444,0.438209,0.409297,0.4178,0.380385,0.385488,0.38322,0.405896,0.4178,0.376984,0.400794,0.430272,0.451814,0.451247,0.431973,0.412132,0.439909,0.418367,0.405896,0.44898,0.419501,0.412698,0.46712,0.451814,0.460884,0.416667,0.404195,0.384354,0.393424,0.356576,0.375283,0.361678,0.38322,0.346939,0.371315,0.406463,0.415533,0.420068,0.422336,0.438776,0.429138,0.499433,0.394558,0.410431,0.399093,0.388322,0.461451,0.443311,0.424603,0.415533,0.402494,0.380385,0.378118,0.401927,0.381519,0.405329,0.446145,0.511905,0.502268,0.587868,0.605442,0.575397,0.599206,0.576531,0.594671,0.576531,0.602041,0.550454,0.589002,0.617914,0.643991,0.623016,0.601474,0.575397,0.571429,0.517007,0.526644,0.510771,0.510204,0.555556,0.570295,0.584467,0.584467,0.586168,0.579932,0.585601,0.637755,0.636621,0.602041,0.595805,0.548753,0.497732,0.48356,0.46712,0.548753,0.520975,0.480726,0.484127,0.45805,0.447279,0.454082,0.431406,0.436508,0.47449,0.533447,0.568027,0.537982,0.570862,0.550454,0.540249,0.54195,0.489796,0.493764,0.496032,0.473923,0.454082,0.421202,0.422336,0.467687,0.459751,0.44161,0.445011,0.370748,0.374717,0.375283,0.366213,0.358277,0.371315,0.479592,0.471655,0.479592,0.464853,0.489229,0.511338,0.501134,0.472789,0.479592,0.498866,0.46712,0.449546,0.423469,0.43254,0.473923,0.461451,0.452948,0.431406,0.411565,0.385488,0.357143,0.362812,0.37585,0.381519,0.422902,0.434807,0.437642,0.478458,0.478458,0.468821,0.456916,0.490363,0.455782,0.435374,0.4178,0.403061,0.404762,0.422336,0.459751,0.460884,0.450113,0.446145,0.400227,0.396825,0.388889,0.376417,0.385488,0.391723,0.403628,0.387755,0.406463,0.443878,0.438209,0.447279,0.40873,0.416667,0.424603,0.425737,0.418934,0.411565,0.412698,0.383787,0.46712,0.463152,0.4178,0.4178,0.383787,0.376984,0.374717,0.369048,0.370181,0.367347,0.385488,0.358844,0.384354,0.414399,0.45805,0.424036,0.414966,0.412698,0.420068,0.414966,0.408163,0.415533,0.424603,0.455782,0.47619,0.466553,0.442177,0.428571,0.370181,0.359977,0.371315,0.379819,0.386054,0.39966,0.440476,0.460884,0.44161,0.471088,0.496032,0.501134,0.513039,0.49093,0.504535,0.486961,0.44898,0.426304,0.439909,0.444444,0.47619,0.462018,0.443311,0.428005,0.381519,0.380952,0.403628,0.384354,0.396258,0.411565,0.479592,0.492063,0.486961,0.493764,0.514739,0.537982,0.536281,0.501134,0.49093,0.506803,0.503401,0.471088,0.466553,0.433673,0.500567,0.524943,0.497166,0.480159,0.448413,0.44898,0.44898,0.438776,0.429705,0.466553,0.505102,0.49263,0.503968,0.510204,0.522676,0.519274,0.46712,0.469388,0.479025,0.447846,0.468254,0.424603,0.4161,0.43254,0.471655,0.460317,0.458617,0.437075,0.397959,0.380385,0.393424,0.387188,0.391156,0.399093,0.460884,0.445011,0.44898,0.481859,0.478458,0.486961,0.487528,0.482426,0.473923,0.460317,0.479592,0.433673,0.424603,0.400794,0.49263,0.471088,0.446145,0.418367,0.400227,0.382086,0.372449,0.373016,0.371315,0.37585,0.413832,0.431973,0.447846,0.463152,0.490363,0.501701,0.496599,0.486961,0.533447,0.528345,0.546485,0.522109,0.521542,0.501134,0.498299,0.472789,0.439342,0.465986,0.413832,0.379819,0.393991,0.39229,0.363379,0.375283,0.395125,0.376984,0.380952,0.380952,0.409297,0.421202,0.401927,0.421202,0.437075,0.400227,0.409297,0.408163,0.443878,0.445011,0.464853,0.489796,0.442744,0.417234,0.392857,0.391156,0.357143,0.357143,0.354308,0.366213,0.376984,0.362812,0.391723,0.395125,0.406463,0.438209,0.404762,0.431973,0.51644,0.394558,0.404195,0.381519,0.421202,0.405896,0.456916,0.422336,0.447846,0.396258,0.393991,0.373016,0.350907,0.339002,0.356009,0.374717,0.397392,0.431973,0.435374,0.475057,0.49263,0.484127,0.461451,0.486961,0.456916,0.481859,0.471088,0.439342,0.44898,0.426871,0.471088,0.455782,0.443878,0.430839,0.403061,0.37585,0.367347,0.377551,0.361111,0.350907,0.403628,0.413265,0.447279,0.462018,0.460884,0.454082,0.504535,0.496599,0.48356,0.485828,0.460884,0.455215,0.417234,0.409297,0.470522,0.468254,0.459184,0.410998,0.386621,0.390023,0.370748,0.370748,0.358844,0.388889,0.417234,0.438209,0.457483,0.457483,0.502834,0.517007,0.470522,0.498299,0.471655,0.494898,0.501701,0.489229,0.465986,0.472789,0.512472,0.489796,0.465419,0.4178,0.424603,0.407029,0.375283,0.371315,0.367914,0.388889,0.451247,0.455782,0.462585,0.481859,0.506803,0.532313,0.50737,0.551587,0.595238,0.594104,0.622449,0.573696,0.556689,0.577097,0.589002,0.580499,0.581066,0.524943,0.513039,0.491497,0.426304,0.412698,0.404195,0.412132,0.472222,0.472789,0.489229,0.503968,0.54195,0.56746,0.578231,0.620748,0.60034,0.594671,0.623016,0.573129,0.575964,0.556122,0.590136,0.572562,0.552721,0.522676,0.459184,0.451247,0.414966,0.405329,0.400227,0.391723,0.405896,0.363946,0.402494,0.44898,0.524376,0.550454,0.528345,0.54932,0.561224,0.585034,0.565193,0.581633,0.538549,0.55102,0.565193,0.579932,0.553288,0.541383,0.498299,0.430839,0.43254,0.407596,0.400794,0.406463,0.424603,0.393991,0.39966,0.433673,0.514172,0.515873,0.526077,0.564059,0.566327,0.559524,0.543651,0.556689,0.55839,0.553855,0.585601,0.584467,0.557256,0.553288,0.464286,0.445011,0.435941,0.410998,0.403061,0.410998,0.430839,0.462585,0.488662,0.56576,0.591837,0.634354,0.644558,0.630952,0.660431,0.637188,0.630952,0.594671,0.565193,0.581066,0.632086,0.596372,0.5839,0.565193,0.511905,0.456349,0.467687,0.430272,0.451814,0.435941,0.489229,0.502834,0.532313,0.527778,0.555556,0.570862,0.569728,0.545918,0.575397,0.553288,0.581066,0.552154,0.546485,0.55102,0.602608,0.535147,0.512472,0.484127,0.471655,0.434807,0.413265,0.398526,0.404762,0.422336,0.456916,0.465419,0.511338,0.54932,0.593537,0.618481,0.611678,0.629819,0.651927,0.630952,0.64229,0.587302,0.589002,0.555556,0.595805,0.573129,0.592404,0.540249,0.510204,0.502834,0.47619,0.473923,0.481859,0.422336,0.486961,0.517007,0.504535,0.532313,0.548186,0.578798,0.587302,0.557823,0.562925,0.59127,0.60771,0.585601,0.555556,0.545918,0.578231,0.545918,0.53288,0.479025,0.480726,0.464853,0.456916,0.426304,0.416667,0.44161,0.47449,0.505669,0.535147,0.556122,0.562925,0.612245,0.594671,0.603175,0.628685,0.617914,0.611111,0.630952,0.579932,0.560091,0.605442,0.602041,0.579365,0.551587,0.547052,0.520975,0.466553,0.437642,0.447846,0.434807,0.469388,0.430272,0.43424,0.404195,0.441043,0.448413,0.419501,0.424036,0.418367,0.422336,0.418934,0.424036,0.398526,0.45068,0.463719,0.475624,0.452381,0.435374,0.423469,0.401927,0.424603,0.401927,0.392857,0.383787,0.393424,0.387755,0.386621,0.418934,0.446145,0.425737,0.428005,0.433673,0.44898,0.429705,0.415533,0.429705,0.402494,0.413832,0.489229,0.484694,0.444444,0.439342,0.410431,0.39229,0.376984,0.360544,0.386054,0.396825,0.480159,0.463152,0.441043,0.486395,0.524943,0.52381,0.552721,0.538549,0.518707,0.513039,0.496599,0.445578,0.462018,0.431973,0.496032,0.502268,0.470522,0.435941,0.427438,0.393991,0.368481,0.380952,0.380385,0.391156,0.428571,0.446145,0.487528,0.524943,0.506803,0.592404,0.606009,0.602608,0.649093,0.639456,0.62415,0.588435,0.529478,0.484694,0.531179,0.5,0.503401,0.482426,0.451814,0.421202,0.416667,0.400794,0.412132,0.383787,0.460884,0.480159,0.501701,0.496599,0.513605,0.553855,0.501134,0.531179,0.52551,0.546485,0.537415,0.493764,0.482426,0.473356,0.534014,0.522676,0.480726,0.478458,0.450113,0.446712,0.437075,0.418934,0.421769,0.433673,0.469388,0.49093,0.513039,0.522676,0.540816,0.636054,0.613946,0.655896,0.668934,0.672336,0.662132,0.621315,0.638322,0.605442,0.635488,0.645125,0.606576,0.601474,0.564059,0.524943,0.520408,0.519841,0.511338,0.556122,0.55839,0.569161,0.59127,0.60034,0.65873,0.668367,0.653628,0.646258,0.671769,0.667234,0.660998,0.608277,0.596372,0.595805,0.633787,0.61678,0.615079,0.583333,0.595805,0.553288,0.546485,0.531179,0.494331,0.524376,0.475624,0.446145,0.465986,0.470522,0.491497,0.486395,0.514739,0.49093,0.517007,0.562358,0.54932,0.538549,0.527211,0.495465,0.527211,0.524943,0.500567,0.499433,0.47449,0.42517,0.421769,0.418934,0.384921,0.394558,0.404195,0.375283,0.382086,0.390023,0.407029,0.415533,0.438209,0.422336,0.457483,0.418367,0.392857,0.411565,0.378118,0.39059,0.446712,0.484694,0.423469,0.402494,0.414399,0.412132,0.385488,0.37415,0.360544,0.369048,0.44898,0.449546,0.454082,0.447846,0.480726,0.485828,0.519274,0.513605,0.50737,0.504535,0.484127,0.433673,0.450113,0.425737,0.443311,0.463152,0.452948,0.445578,0.408163,0.388889,0.365079,0.351474,0.363379,0.391723,0.407029,0.44161,0.44898,0.46712,0.506236,0.521542,0.526644,0.580499,0.579365,0.59127,0.564059,0.556689,0.571995,0.540816,0.568027,0.576531,0.520408,0.470522,0.443878,0.412698,0.428005,0.439909,0.39229,0.417234,0.456349,0.489796,0.526644,0.523243,0.603741,0.614512,0.646825,0.687075,0.67517,0.679705,0.695011,0.653628,0.641723,0.625283,0.61678,0.636621,0.627551,0.566893,0.579365,0.540249,0.505102,0.509637,0.485828,0.515306,0.502834,0.51644,0.510771,0.544785,0.583333,0.591837,0.60034,0.634354,0.663832,0.665533,0.654195,0.613379,0.602041,0.583333,0.589569,0.617347,0.60034,0.579932,0.541383,0.519841,0.460317,0.464286,0.44161,0.465419,0.510771,0.509637,0.501134,0.55839,0.608844,0.611678,0.639456,0.681973,0.672902,0.719388,0.719955,0.657029,0.650227,0.607143,0.630385,0.626417,0.599206,0.581066,0.573696,0.553288,0.514739,0.530045,0.505669,0.445011,0.451247,0.45068,0.451814,0.544785,0.584467,0.589002,0.587868,0.611111,0.581066,0.587868,0.583333,0.579932,0.573696,0.496599,0.498299,0.502834,0.487528,0.462585,0.437642,0.407029,0.400227,0.392857,0.370181,0.353741,0.351474,0.35034,0.352041,0.361111,0.411565,0.42517,0.429705,0.414399,0.431406,0.405329,0.442744,0.434807,0.444444,0.442177,0.433107,0.47449,0.435374,0.408163,0.405896,0.38322,0.396825,0.373016,0.387188,0.373016,0.387188,0.394558,0.466553,0.490363,0.488662,0.517574,0.50737,0.518141,0.529478,0.535714,0.544218,0.500567,0.49093,0.471655,0.467687,0.482993,0.459751,0.423469,0.38322,0.