

!!!master.dss
clear
new object=circuit.j1


! redirect vsource.dss
! makebuslist
! redirect busvoltagebases.dss ! set voltage bases
! buscoords buscoords.dss
! giscoords giscoords.dss


!!!loadshape.dss
new object=loadshape.default npts=24 interval=1 mult=[0.677,0.6256,0.6087,0.5833,0.58028,0.6025,0.657,0.7477,0.832,0.88,0.94,0.989,0.985,0.98,0.9898,0.999,1,0.958,0.936,0.913,0.876,0.876,0.828,0.756]
new object=loadshape.commercial npts=1 sinterval=1 mult=[1]
new object=loadshape.other npts=1 sinterval=1 mult=[1]
new object=loadshape.aggloadprofile npts=1 sinterval=1 mult=[1]


!!!vsource.dss
edit object=vsource.source pu=0.97 r1=1.376 x1=14.257 r0=0.001 x0=8.203 bus1=s basekv=69


!!!transformer.dss
new object=transformer.subxfmr phases=3 windings=2 buses=[s,ls_bus] conns=[wye,wye] kvs=[68.8,13.09] kvas=[16000,16000] numtaps=16 xhl=11.63 buses=[s,ls_bus] conns=[wye,wye] kvs=[68.8,13.09] kvas=[16000,16000] taps=[1,1.0125] wdg=1 %r=0.596 rdcohms=0.4995751 wdg=2 %r=0.596 rdcohms=0.01808436 ppm_antifloat=5
new object=transformer.b13552-1a phases=1 buses=[b13552.1,x_b13552-a.1] conns=[wye,wye] kvs=[7.2,0.24] kvas=[40,40] taps=[1,1] wdg=1 %r=0.36105 rdcohms=3.977327 wdg=2 %r=0.36105 rdcohms=0.004419252 %loadloss=0.7221 %noloadloss=0.2423 xhl=1.5158 normhkva=40 emerghkva=56
new object=transformer.b34986-1c phases=1 buses=[b34986.3,x_b34986-c.3] conns=[wye,wye] kvs=[7.2,0.24] kvas=[25,25] taps=[1,1] wdg=1 %r=0.38195 rdcohms=6.732098 wdg=2 %r=0.38195 rdcohms=0.007480109 %loadloss=0.7639 %noloadloss=0.0851 xhl=2.1 normhkva=25 emerghkva=35
new object=transformer.b45835-1b phases=1 buses=[b45835.2,x_b45835-b.2] conns=[wye,wye] kvs=[7.2,0.24] kvas=[25,25] taps=[1,1] wdg=1 %r=0.38195 rdcohms=6.732098 wdg=2 %r=0.38195 rdcohms=0.007480109 %loadloss=0.7639 %noloadloss=0.0851 xhl=2.1 normhkva=25 emerghkva=35
new object=transformer.b50640-1a phases=1 buses=[b50640.1,x_b50640-a.1] conns=[wye,wye] kvs=[7.2,0.24] kvas=[15,15] taps=[1,1] wdg=1 %r=0.52 rdcohms=15.27552 wdg=2 %r=0.52 rdcohms=0.0169728 %loadloss=1.04 %noloadloss=0.34 xhl=1.5 normhkva=15 emerghkva=21
new object=transformer.b4805-1c phases=1 buses=[b4805.3,x_b4805-c.3] conns=[wye,wye] kvs=[7.2,0.24] kvas=[50,50] taps=[1,1] wdg=1 %r=0.369 rdcohms=3.251923 wdg=2 %r=0.369 rdcohms=0.003613248 %loadloss=0.738 %noloadloss=0.1987 xhl=1.7532 normhkva=50 emerghkva=70
new object=transformer.b4710-1a phases=1 buses=[b4710.1,x_b4710-a.1] conns=[wye,wye] kvs=[7.2,0.24] kvas=[15,15] taps=[1,1] wdg=1 %r=0.52 rdcohms=15.27552 wdg=2 %r=0.52 rdcohms=0.0169728 %loadloss=1.04 %noloadloss=0.34 xhl=1.5 normhkva=15 emerghkva=21
new object=transformer.b4859-1a phases=1 buses=[b4859.1,x_b4859-a.1] conns=[wye,wye] kvs=[7.2,0.24] kvas=[25,25] taps=[1,1] wdg=1 %r=0.38195 rdcohms=6.732098 wdg=2 %r=0.38195 rdcohms=0.007480109 %loadloss=0.7639 %noloadloss=0.0851 xhl=2.1 normhkva=25 emerghkva=35
new object=transformer.b4859-1b phases=1 buses=[b4859.2,x_b4859-b.2] conns=[wye,wye] kvs=[7.2,0.24] kvas=[25,25] taps=[1,1] wdg=1 %r=0.38195 rdcohms=6.732098 wdg=2 %r=0.38195 rdcohms=0.007480109 %loadloss=0.7639 %noloadloss=0.0851 xhl=2.1 normhkva=25 emerghkva=35
new object=transformer.b4859-1c phases=1 buses=[b4859.3,x_b4859-c.3] conns=[wye,wye] kvs=[7.2,0.24] kvas=[25,25] taps=[1,1] wdg=1 %r=0.38195 rdcohms=6.732098 wdg=2 %r=0.38195 rdcohms=0.007480109 %loadloss=0.7639 %noloadloss=0.0851 xhl=2.1 normhkva=25 emerghkva=35
new object=transformer.b41240-1a phases=1 buses=[b41240.1,x_b41240-a.1] conns=[wye,wye] kvs=[7.2,0.24] kvas=[15,15] taps=[1,1] wdg=1 %r=0.52 rdcohms=15.27552 wdg=2 %r=0.52 rdcohms=0.0169728 %loadloss=1.04 %noloadloss=0.34 xhl=1.5 normhkva=15 emerghkva=21
new object=transformer.b55546-1c phases=1 buses=[b55546.3,x_b55546-c.3] conns=[wye,wye] kvs=[7.2,0.24] kvas=[15,15] taps=[1,1] wdg=1 %r=0.52 rdcohms=15.27552 wdg=2 %r=0.52 rdcohms=0.0169728 %loadloss=1.04 %noloadloss=0.34 xhl=1.5 normhkva=15 emerghkva=21
new object=transformer.b18979-1c phases=1 buses=[b18979.3,x_b18979-c.3] conns=[wye,wye] kvs=[7.2,0.24] kvas=[15,15] taps=[1,1] wdg=1 %r=0.52 rdcohms=15.27552 wdg=2 %r=0.52 rdcohms=0.0169728 %loadloss=1.04 %noloadloss=0.34 xhl=1.5 normhkva=15 emerghkva=21
new object=transformer.b4982-1b phases=1 buses=[b4982.2,x_b4982-b.2] conns=[wye,wye] kvs=[7.2,0.24] kvas=[15,15] taps=[1,1] wdg=1 %r=0.52 rdcohms=15.27552 wdg=2 %r=0.52 rdcohms=0.0169728 %loadloss=1.04 %noloadloss=0.34 xhl=1.5 normhkva=15 emerghkva=21
new object=transformer.b18902-1a phases=1 buses=[b18902.1,x_b18902-a.1] conns=[wye,wye] kvs=[7.2,0.24] kvas=[15,15] taps=[1,1] wdg=1 %r=0.52 rdcohms=15.27552 wdg=2 %r=0.52 rdcohms=0.0169728 %loadloss=1.04 %noloadloss=0.34 xhl=1.5 normhkva=15 emerghkva=21
new object=transformer.b2532-1a phases=1 buses=[b2532.1,x_b2532-a.1] conns=[wye,wye] kvs=[7.2,0.24] kvas=[15,15] taps=[1,1] wdg=1 %r=0.52 rdcohms=15.27552 wdg=2 %r=0.52 rdcohms=0.0169728 %loadloss=1.04 %noloadloss=0.34 xhl=1.5 normhkva=15 emerghkva=21
new object=transformer.b47668-1a phases=1 buses=[b47668.1,x_b47668-a.1] conns=[wye,wye] kvs=[7.2,0.24] kvas=[15,15] taps=[1,1] wdg=1 %r=0.52 rdcohms=15.27552 wdg=2 %r=0.52 rdcohms=0.0169728 %loadloss=1.04 %noloadloss=0.34 xhl=1.5 normhkva=15 emerghkva=21
new object=transformer.b47668-1b phases=1 buses=[b47668.2,x_b47668-b.2] conns=[wye,wye] kvs=[7.2,0.24] kvas=[15,15] taps=[1,1] wdg=1 %r=0.52 rdcohms=15.27552 wdg=2 %r=0.52 rdcohms=0.0169728 %loadloss=1.04 %noloadloss=0.34 xhl=1.5 normhkva=15 emerghkva=21
new object=transformer.b47668-1c phases=1 buses=[b47668.3,x_b47668-c.3] conns=[wye,wye] kvs=[7.2,0.24] kvas=[15,15] taps=[1,1] wdg=1 %r=0.52 rdcohms=15.27552 wdg=2 %r=0.52 rdcohms=0.0169728 %loadloss=1.04 %noloadloss=0.34 xhl=1.5 normhkva=15 emerghkva=21
new object=transformer.b4891-1c phases=1 buses=[b4891.3,x_b4891-c.3] conns=[wye,wye] kvs=[7.2,0.24] kvas=[25,25] taps=[1,1] wdg=1 %r=0.38195 rdcohms=6.732098 wdg=2 %r=0.38195 rdcohms=0.007480109 %loadloss=0.7639 %noloadloss=0.0851 xhl=2.1 normhkva=25 emerghkva=35
new object=transformer.b18858-1b phases=1 buses=[b18858.2,x_b18858-b.2] conns=[wye,wye] kvs=[7.2,0.24] kvas=[15,15] taps=[1,1] wdg=1 %r=0.52 rdcohms=15.27552 wdg=2 %r=0.52 rdcohms=0.0169728 %loadloss=1.04 %noloadloss=0.34 xhl=1.5 normhkva=15 emerghkva=21
new object=transformer.5851228580-1c phases=1 buses=[5851228580.3,x_5851228580-c.3] conns=[wye,wye] kvs=[7.2,0.24] kvas=[25,25] taps=[1,1] wdg=1 %r=0.38195 rdcohms=6.732098 wdg=2 %r=0.38195 rdcohms=0.007480109 %loadloss=0.7639 %noloadloss=0.0851 xhl=2.1 normhkva=25 emerghkva=35
new object=transformer.b18971-1c phases=1 buses=[b18971.3,x_b18971-c.3] conns=[wye,wye] kvs=[7.2,0.24] kvas=[25,25] taps=[1,1] wdg=1 %r=0.38195 rdcohms=6.732098 wdg=2 %r=0.38195 rdcohms=0.007480109 %loadloss=0.7639 %noloadloss=0.0851 xhl=2.1 normhkva=25 emerghkva=35
new object=transformer.b8019-1c phases=1 buses=[b8019.3,x_b8019-c.3] conns=[wye,wye] kvs=[7.2,0.24] kvas=[25,25] taps=[1,1] wdg=1 %r=0.38195 rdcohms=6.732098 wdg=2 %r=0.38195 rdcohms=0.007480109 %loadloss=0.7639 %noloadloss=0.0851 xhl=2.1 normhkva=25 emerghkva=35
new object=transformer.b60843-1c phases=1 buses=[b60843.3,x_b60843-c.3] conns=[wye,wye] kvs=[7.2,0.24] kvas=[15,15] taps=[1,1] wdg=1 %r=0.52 rdcohms=15.27552 wdg=2 %r=0.52 rdcohms=0.0169728 %loadloss=1.04 %noloadloss=0.34 xhl=1.5 normhkva=15 emerghkva=21
new object=transformer.b44432-1c phases=1 buses=[b44432.3,x_b44432-c.3] conns=[wye,wye] kvs=[7.2,0.24] kvas=[10,10] taps=[1,1] wdg=1 %r=0.511 rdcohms=22.5167 wdg=2 %r=0.511 rdcohms=0.02501856 %loadloss=1.022 %noloadloss=0.3221 xhl=1.707 normhkva=10 emerghkva=14
new object=transformer.b52584-1b phases=1 buses=[b52584.2,x_b52584-b.2] conns=[wye,wye] kvs=[7.2,0.24] kvas=[25,25] taps=[1,1] wdg=1 %r=0.38195 rdcohms=6.732098 wdg=2 %r=0.38195 rdcohms=0.007480109 %loadloss=0.7639 %noloadloss=0.0851 xhl=2.1 normhkva=25 emerghkva=35
new object=transformer.b41463-1c phases=1 buses=[b41463.3,x_b41463-c.3] conns=[wye,wye] kvs=[7.2,0.24] kvas=[25,25] taps=[1,1] wdg=1 %r=0.38195 rdcohms=6.732098 wdg=2 %r=0.38195 rdcohms=0.007480109 %loadloss=0.7639 %noloadloss=0.0851 xhl=2.1 normhkva=25 emerghkva=35
new object=transformer.5905728658-1b phases=1 buses=[5905728658.2,x_5905728658-b.2] conns=[wye,wye] kvs=[7.2,0.24] kvas=[15,15] taps=[1,1] wdg=1 %r=0.52 rdcohms=15.27552 wdg=2 %r=0.52 rdcohms=0.0169728 %loadloss=1.04 %noloadloss=0.34 xhl=1.5 normhkva=15 emerghkva=21
new object=transformer.b15821-1c phases=1 buses=[b15821.3,x_b15821-c.3] conns=[wye,wye] kvs=[7.2,0.24] kvas=[15,15] taps=[1,1] wdg=1 %r=0.52 rdcohms=15.27552 wdg=2 %r=0.52 rdcohms=0.0169728 %loadloss=1.04 %noloadloss=0.34 xhl=1.5 normhkva=15 emerghkva=21
new object=transformer.b18850-1b phases=1 buses=[b18850.2,x_b18850-b.2] conns=[wye,wye] kvs=[7.2,0.24] kvas=[15,15] taps=[1,1] wdg=1 %r=0.52 rdcohms=15.27552 wdg=2 %r=0.52 rdcohms=0.0169728 %loadloss=1.04 %noloadloss=0.34 xhl=1.5 normhkva=15 emerghkva=21
new object=transformer.b18866-1a phases=1 buses=[b18866.1,x_b18866-a.1] conns=[wye,wye] kvs=[7.2,0.24] kvas=[15,15] taps=[1,1] wdg=1 %r=0.52 rdcohms=15.27552 wdg=2 %r=0.52 rdcohms=0.0169728 %loadloss=1.04 %noloadloss=0.34 xhl=1.5 normhkva=15 emerghkva=21
new object=transformer.6060229368-1b phases=1 buses=[6060229368.2,x_6060229368-b.2] conns=[wye,wye] kvs=[7.2,0.24] kvas=[25,25] taps=[1,1] wdg=1 %r=0.38195 rdcohms=6.732098 wdg=2 %r=0.38195 rdcohms=0.007480109 %loadloss=0.7639 %noloadloss=0.0851 xhl=2.1 normhkva=25 emerghkva=35
new object=transformer.b52162-1a phases=1 buses=[b52162.1,x_b52162-a.1] conns=[wye,wye] kvs=[7.2,0.24] kvas=[15,15] taps=[1,1] wdg=1 %r=0.52 rdcohms=15.27552 wdg=2 %r=0.52 rdcohms=0.0169728 %loadloss=1.04 %noloadloss=0.34 xhl=1.5 normhkva=15 emerghkva=21
new object=transformer.g43337-1a phases=1 buses=[g43337.1,x_g43337-a.1] conns=[wye,wye] kvs=[7.2,0.24] kvas=[15,15] taps=[1,1] wdg=1 %r=0.52 rdcohms=15.27552 wdg=2 %r=0.52 rdcohms=0.0169728 %loadloss=1.04 %noloadloss=0.34 xhl=1.5 normhkva=15 emerghkva=21
new object=transformer.b18977-1c phases=1 buses=[b18977.3,x_b18977-c.3] conns=[wye,wye] kvs=[7.2,0.24] kvas=[15,15] taps=[1,1] wdg=1 %r=0.52 rdcohms=15.27552 wdg=2 %r=0.52 rdcohms=0.0169728 %loadloss=1.04 %noloadloss=0.34 xhl=1.5 normhkva=15 emerghkva=21
new object=transformer.b18839-1b phases=1 buses=[b18839.2,x_b18839-b.2] conns=[wye,wye] kvs=[7.2,0.24] kvas=[15,15] taps=[1,1] wdg=1 %r=0.52 rdcohms=15.27552 wdg=2 %r=0.52 rdcohms=0.0169728 %loadloss=1.04 %noloadloss=0.34 xhl=1.5 normhkva=15 emerghkva=21
new object=transformer.b46251-1c phases=1 buses=[b46251.3,x_b46251-c.3] conns=[wye,wye] kvs=[7.2,0.24] kvas=[10,10] taps=[1,1] wdg=1 %r=0.511 rdcohms=22.5167 wdg=2 %r=0.511 rdcohms=0.02501856 %loadloss=1.022 %noloadloss=0.3221 xhl=1.707 normhkva=10 emerghkva=14
new object=transformer.b18925-1b phases=1 buses=[b18925.2,x_b18925-b.2] conns=[wye,wye] kvs=[7.2,0.24] kvas=[10,10] taps=[1,1] wdg=1 %r=0.511 rdcohms=22.5167 wdg=2 %r=0.511 rdcohms=0.02501856 %loadloss=1.022 %noloadloss=0.3221 xhl=1.707 normhkva=10 emerghkva=14
new object=transformer.b22569-1a phases=1 buses=[b22569.1,x_b22569-a.1] conns=[wye,wye] kvs=[7.2,0.24] kvas=[15,15] taps=[1,1] wdg=1 %r=0.52 rdcohms=15.27552 wdg=2 %r=0.52 rdcohms=0.0169728 %loadloss=1.04 %noloadloss=0.34 xhl=1.5 normhkva=15 emerghkva=21
new object=transformer.b23880-1c phases=1 buses=[b23880.3,x_b23880-c.3] conns=[wye,wye] kvs=[7.2,0.24] kvas=[25,25] taps=[1,1] wdg=1 %r=0.38195 rdcohms=6.732098 wdg=2 %r=0.38195 rdcohms=0.007480109 %loadloss=0.7639 %noloadloss=0.0851 xhl=2.1 normhkva=25 emerghkva=35
new object=transformer.b3066-1c phases=1 buses=[b3066.3,x_b3066-c.3] conns=[wye,wye] kvs=[7.2,0.24] kvas=[25,25] taps=[1,1] wdg=1 %r=0.38195 rdcohms=6.732098 wdg=2 %r=0.38195 rdcohms=0.007480109 %loadloss=0.7639 %noloadloss=0.0851 xhl=2.1 normhkva=25 emerghkva=35
new object=transformer.b63365-1b phases=1 buses=[b63365.2,x_b63365-b.2] conns=[wye,wye] kvs=[7.2,0.24] kvas=[25,25] taps=[1,1] wdg=1 %r=0.38195 rdcohms=6.732098 wdg=2 %r=0.38195 rdcohms=0.007480109 %loadloss=0.7639 %noloadloss=0.0851 xhl=2.1 normhkva=25 emerghkva=35
new object=transformer.b26203-1c phases=1 buses=[b26203.3,x_b26203-c.3] conns=[wye,wye] kvs=[7.2,0.24] kvas=[25,25] taps=[1,1] wdg=1 %r=0.38195 rdcohms=6.732098 wdg=2 %r=0.38195 rdcohms=0.007480109 %loadloss=0.7639 %noloadloss=0.0851 xhl=2.1 normhkva=25 emerghkva=35
new object=transformer.b23869-1c phases=1 buses=[b23869.3,x_b23869-c.3] conns=[wye,wye] kvs=[7.2,0.24] kvas=[15,15] taps=[1,1] wdg=1 %r=0.52 rdcohms=15.27552 wdg=2 %r=0.52 rdcohms=0.0169728 %loadloss=1.04 %noloadloss=0.34 xhl=1.5 normhkva=15 emerghkva=21
new object=transformer.b56446-1a phases=1 buses=[b56446.1,x_b56446-a.1] conns=[wye,wye] kvs=[7.2,0.24] kvas=[15,15] taps=[1,1] wdg=1 %r=0.52 rdcohms=15.27552 wdg=2 %r=0.52 rdcohms=0.0169728 %loadloss=1.04 %noloadloss=0.34 xhl=1.5 normhkva=15 emerghkva=21
new object=transformer.b18986-1c phases=1 buses=[b18986.3,x_b18986-c.3] conns=[wye,wye] kvs=[7.2,0.24] kvas=[25,25] taps=[1,1] wdg=1 %r=0.38195 rdcohms=6.732098 wdg=2 %r=0.38195 rdcohms=0.007480109 %loadloss=0.7639 %noloadloss=0.0851 xhl=2.1 normhkva=25 emerghkva=35
new object=transformer.b13651-1a phases=1 buses=[b13651.1,x_b13651-a.1] conns=[wye,wye] kvs=[7.2,0.24] kvas=[38,38] taps=[1,1] wdg=1 %r=0.36105 rdcohms=4.18666 wdg=2 %r=0.36105 rdcohms=0.004651844 %loadloss=0.7221 %noloadloss=0.2423 xhl=1.5158 normhkva=37.5 emerghkva=53.2
new object=transformer.6034628876-1c phases=1 buses=[6034628876.3,x_6034628876-c.3] conns=[wye,wye] kvs=[7.2,0.24] kvas=[25,25] taps=[1,1] wdg=1 %r=0.38195 rdcohms=6.732098 wdg=2 %r=0.38195 rdcohms=0.007480109 %loadloss=0.7639 %noloadloss=0.0851 xhl=2.1 normhkva=25 emerghkva=35
new object=transformer.b17575-1c phases=1 buses=[b17575.3,x_b17575-c.3] conns=[wye,wye] kvs=[7.2,0.24] kvas=[25,25] taps=[1,1] wdg=1 %r=0.38195 rdcohms=6.732098 wdg=2 %r=0.38195 rdcohms=0.007480109 %loadloss=0.7639 %noloadloss=0.0851 xhl=2.1 normhkva=25 emerghkva=35
new object=transformer.b10925-1c phases=1 buses=[b10925.3,x_b10925-c.3] conns=[wye,wye] kvs=[7.2,0.24] kvas=[15,15] taps=[1,1] wdg=1 %r=0.52 rdcohms=15.27552 wdg=2 %r=0.52 rdcohms=0.0169728 %loadloss=1.04 %noloadloss=0.34 xhl=1.5 normhkva=15 emerghkva=21
new object=transformer.b23406-1a phases=1 buses=[b23406.1,x_b23406-a.1] conns=[wye,wye] kvs=[7.2,0.24] kvas=[25,25] taps=[1,1] wdg=1 %r=0.38195 rdcohms=6.732098 wdg=2 %r=0.38195 rdcohms=0.007480109 %loadloss=0.7639 %noloadloss=0.0851 xhl=2.1 normhkva=25 emerghkva=35
new object=transformer.b4594-1c phases=1 buses=[b4594.3,x_b4594-c.3] conns=[wye,wye] kvs=[7.2,0.24] kvas=[38,38] taps=[1,1] wdg=1 %r=0.36105 rdcohms=4.18666 wdg=2 %r=0.36105 rdcohms=0.004651844 %loadloss=0.7221 %noloadloss=0.2423 xhl=1.5158 normhkva=37.5 emerghkva=53.2
new object=transformer.6018228840-1c phases=1 buses=[6018228840.3,x_6018228840-c.3] conns=[wye,wye] kvs=[7.2,0.24] kvas=[50,50] taps=[1,1] wdg=1 %r=0.369 rdcohms=3.251923 wdg=2 %r=0.369 rdcohms=0.003613248 %loadloss=0.738 %noloadloss=0.1987 xhl=1.7532 normhkva=50 emerghkva=70
new object=transformer.b5185-1c phases=1 buses=[b5185.3,x_b5185-c.3] conns=[wye,wye] kvs=[7.2,0.24] kvas=[25,25] taps=[1,1] wdg=1 %r=0.38195 rdcohms=6.732098 wdg=2 %r=0.38195 rdcohms=0.007480109 %loadloss=0.7639 %noloadloss=0.0851 xhl=2.1 normhkva=25 emerghkva=35
new object=transformer.b48180-1c phases=1 buses=[b48180.3,x_b48180-c.3] conns=[wye,wye] kvs=[7.2,0.24] kvas=[15,15] taps=[1,1] wdg=1 %r=0.52 rdcohms=15.27552 wdg=2 %r=0.52 rdcohms=0.0169728 %loadloss=1.04 %noloadloss=0.34 xhl=1.5 normhkva=15 emerghkva=21
new object=transformer.g35573-1a phases=1 buses=[g35573.1,x_g35573-a.1] conns=[wye,wye] kvs=[7.2,0.24] kvas=[38,38] taps=[1,1] wdg=1 %r=0.36105 rdcohms=4.18666 wdg=2 %r=0.36105 rdcohms=0.004651844 %loadloss=0.7221 %noloadloss=0.2423 xhl=1.5158 normhkva=37.5 emerghkva=53.2
new object=transformer.g35573-1b phases=1 buses=[g35573.2,x_g35573-b.2] conns=[wye,wye] kvs=[7.2,0.24] kvas=[38,38] taps=[1,1] wdg=1 %r=0.36105 rdcohms=4.18666 wdg=2 %r=0.36105 rdcohms=0.004651844 %loadloss=0.7221 %noloadloss=0.2423 xhl=1.5158 normhkva=37.5 emerghkva=53.2
new object=transformer.g35573-1c phases=1 buses=[g35573.3,x_g35573-c.3] conns=[wye,wye] kvs=[7.2,0.24] kvas=[38,38] taps=[1,1] wdg=1 %r=0.36105 rdcohms=4.18666 wdg=2 %r=0.36105 rdcohms=0.004651844 %loadloss=0.7221 %noloadloss=0.2423 xhl=1.5158 normhkva=37.5 emerghkva=53.2
new object=transformer.b59582-1c phases=1 buses=[b59582.3,x_b59582-c.3] conns=[wye,wye] kvs=[7.2,0.24] kvas=[15,15] taps=[1,1] wdg=1 %r=0.52 rdcohms=15.27552 wdg=2 %r=0.52 rdcohms=0.0169728 %loadloss=1.04 %noloadloss=0.34 xhl=1.5 normhkva=15 emerghkva=21
new object=transformer.g33468-1b phases=1 buses=[g33468.2,x_g33468-b.2] conns=[wye,wye] kvs=[7.2,0.24] kvas=[15,15] taps=[1,1] wdg=1 %r=0.52 rdcohms=15.27552 wdg=2 %r=0.52 rdcohms=0.0169728 %loadloss=1.04 %noloadloss=0.34 xhl=1.5 normhkva=15 emerghkva=21
new object=transformer.b4861-1b phases=1 buses=[b4861.2,x_b4861-b.2] conns=[wye,wye] kvs=[7.2,0.24] kvas=[38,38] taps=[1,1] wdg=1 %r=0.36105 rdcohms=4.18666 wdg=2 %r=0.36105 rdcohms=0.004651844 %loadloss=0.7221 %noloadloss=0.2423 xhl=1.5158 normhkva=37.5 emerghkva=53.2
new object=transformer.6000828811-1a phases=1 buses=[6000828811.1,x_6000828811-a.1] conns=[wye,wye] kvs=[7.2,0.24] kvas=[40,40] taps=[1,1] wdg=1 %r=0.36105 rdcohms=3.977327 wdg=2 %r=0.36105 rdcohms=0.004419252 %loadloss=0.7221 %noloadloss=0.2423 xhl=1.5158 normhkva=40 emerghkva=56
new object=transformer.b18995-1c phases=1 buses=[b18995.3,x_b18995-c.3] conns=[wye,wye] kvs=[7.2,0.24] kvas=[15,15] taps=[1,1] wdg=1 %r=0.52 rdcohms=15.27552 wdg=2 %r=0.52 rdcohms=0.0169728 %loadloss=1.04 %noloadloss=0.34 xhl=1.5 normhkva=15 emerghkva=21
new object=transformer.g42394-1c phases=1 buses=[g42394.3,x_g42394-c.3] conns=[wye,wye] kvs=[7.2,0.24] kvas=[15,15] taps=[1,1] wdg=1 %r=0.52 rdcohms=15.27552 wdg=2 %r=0.52 rdcohms=0.0169728 %loadloss=1.04 %noloadloss=0.34 xhl=1.5 normhkva=15 emerghkva=21
new object=transformer.b36183-1c phases=1 buses=[b36183.3,x_b36183-c.3] conns=[wye,wye] kvs=[7.2,0.24] kvas=[15,15] taps=[1,1] wdg=1 %r=0.52 rdcohms=15.27552 wdg=2 %r=0.52 rdcohms=0.0169728 %loadloss=1.04 %noloadloss=0.34 xhl=1.5 normhkva=15 emerghkva=21
new object=transformer.b62294-1c phases=1 buses=[b62294.3,x_b62294-c.3] conns=[wye,wye] kvs=[7.2,0.24] kvas=[25,25] taps=[1,1] wdg=1 %r=0.38195 rdcohms=6.732098 wdg=2 %r=0.38195 rdcohms=0.007480109 %loadloss=0.7639 %noloadloss=0.0851 xhl=2.1 normhkva=25 emerghkva=35
new object=transformer.g35320-1b phases=1 buses=[g35320.2,x_g35320-b.2] conns=[wye,wye] kvs=[7.2,0.24] kvas=[15,15] taps=[1,1] wdg=1 %r=0.52 rdcohms=15.27552 wdg=2 %r=0.52 rdcohms=0.0169728 %loadloss=1.04 %noloadloss=0.34 xhl=1.5 normhkva=15 emerghkva=21
new object=transformer.g40623-1a phases=1 buses=[g40623.1,x_g40623-a.1] conns=[wye,wye] kvs=[7.2,0.24] kvas=[25,25] taps=[1,1] wdg=1 %r=0.38195 rdcohms=6.732098 wdg=2 %r=0.38195 rdcohms=0.007480109 %loadloss=0.7639 %noloadloss=0.0851 xhl=2.1 normhkva=25 emerghkva=35
new object=transformer.b34541-1a phases=1 buses=[b34541.1,x_b34541-a.1] conns=[wye,wye] kvs=[7.2,0.24] kvas=[15,15] taps=[1,1] wdg=1 %r=0.52 rdcohms=15.27552 wdg=2 %r=0.52 rdcohms=0.0169728 %loadloss=1.04 %noloadloss=0.34 xhl=1.5 normhkva=15 emerghkva=21
new object=transformer.b19071-1c phases=1 buses=[b19071.3,x_b19071-c.3] conns=[wye,wye] kvs=[7.2,0.24] kvas=[15,15] taps=[1,1] wdg=1 %r=0.52 rdcohms=15.27552 wdg=2 %r=0.52 rdcohms=0.0169728 %loadloss=1.04 %noloadloss=0.34 xhl=1.5 normhkva=15 emerghkva=21
new object=transformer.b39820-1c phases=1 buses=[b39820.3,x_b39820-c.3] conns=[wye,wye] kvs=[7.2,0.24] kvas=[25,25] taps=[1,1] wdg=1 %r=0.38195 rdcohms=6.732098 wdg=2 %r=0.38195 rdcohms=0.007480109 %loadloss=0.7639 %noloadloss=0.0851 xhl=2.1 normhkva=25 emerghkva=35
new object=transformer.5857829226-1c phases=1 buses=[5857829226.3,x_5857829226-c.3] conns=[wye,wye] kvs=[7.2,0.24] kvas=[25,25] taps=[1,1] wdg=1 %r=0.38195 rdcohms=6.732098 wdg=2 %r=0.38195 rdcohms=0.007480109 %loadloss=0.7639 %noloadloss=0.0851 xhl=2.1 normhkva=25 emerghkva=35
new object=transformer.5920428274-1c phases=1 buses=[5920428274.3,x_5920428274-c.3] conns=[wye,wye] kvs=[7.2,0.24] kvas=[25,25] taps=[1,1] wdg=1 %r=0.38195 rdcohms=6.732098 wdg=2 %r=0.38195 rdcohms=0.007480109 %loadloss=0.7639 %noloadloss=0.0851 xhl=2.1 normhkva=25 emerghkva=35
new object=transformer.b24281-1c phases=1 buses=[b24281.3,x_b24281-c.3] conns=[wye,wye] kvs=[7.2,0.24] kvas=[15,15] taps=[1,1] wdg=1 %r=0.52 rdcohms=15.27552 wdg=2 %r=0.52 rdcohms=0.0169728 %loadloss=1.04 %noloadloss=0.34 xhl=1.5 normhkva=15 emerghkva=21
new object=transformer.b18912-1b phases=1 buses=[b18912.2,x_b18912-b.2] conns=[wye,wye] kvs=[7.2,0.24] kvas=[25,25] taps=[1,1] wdg=1 %r=0.38195 rdcohms=6.732098 wdg=2 %r=0.38195 rdcohms=0.007480109 %loadloss=0.7639 %noloadloss=0.0851 xhl=2.1 normhkva=25 emerghkva=35
new object=transformer.b60940-1c phases=1 buses=[b60940.3,x_b60940-c.3] conns=[wye,wye] kvs=[7.2,0.24] kvas=[25,25] taps=[1,1] wdg=1 %r=0.38195 rdcohms=6.732098 wdg=2 %r=0.38195 rdcohms=0.007480109 %loadloss=0.7639 %noloadloss=0.0851 xhl=2.1 normhkva=25 emerghkva=35
new object=transformer.b4579-1a phases=1 buses=[b4579.1,x_b4579-a.1] conns=[wye,wye] kvs=[7.2,0.24] kvas=[20,20] taps=[1,1] wdg=1 %r=0.52 rdcohms=11.45664 wdg=2 %r=0.52 rdcohms=0.0127296 %loadloss=1.04 %noloadloss=0.34 xhl=1.5 normhkva=20 emerghkva=28
new object=transformer.b4579-1c phases=1 buses=[b4579.3,x_b4579-c.3] conns=[wye,wye] kvs=[7.2,0.24] kvas=[20,20] taps=[1,1] wdg=1 %r=0.52 rdcohms=11.45664 wdg=2 %r=0.52 rdcohms=0.0127296 %loadloss=1.04 %noloadloss=0.34 xhl=1.5 normhkva=20 emerghkva=28
new object=transformer.b4994-1a phases=1 buses=[b4994.1,x_b4994-a.1] conns=[wye,wye] kvs=[7.2,0.24] kvas=[15,15] taps=[1,1] wdg=1 %r=0.52 rdcohms=15.27552 wdg=2 %r=0.52 rdcohms=0.0169728 %loadloss=1.04 %noloadloss=0.34 xhl=1.5 normhkva=15 emerghkva=21
new object=transformer.b61632-1a phases=1 buses=[b61632.1,x_b61632-a.1] conns=[wye,wye] kvs=[7.2,0.24] kvas=[100,100] taps=[1,1] wdg=1 %r=0.36185 rdcohms=1.594456 wdg=2 %r=0.36185 rdcohms=0.001771618 %loadloss=0.7237 %noloadloss=0.1524 xhl=2.1557 normhkva=100 emerghkva=140
new object=transformer.b61632-1b phases=1 buses=[b61632.2,x_b61632-b.2] conns=[wye,wye] kvs=[7.2,0.24] kvas=[100,100] taps=[1,1] wdg=1 %r=0.36185 rdcohms=1.594456 wdg=2 %r=0.36185 rdcohms=0.001771618 %loadloss=0.7237 %noloadloss=0.1524 xhl=2.1557 normhkva=100 emerghkva=140
new object=transformer.b61632-1c phases=1 buses=[b61632.3,x_b61632-c.3] conns=[wye,wye] kvs=[7.2,0.24] kvas=[100,100] taps=[1,1] wdg=1 %r=0.36185 rdcohms=1.594456 wdg=2 %r=0.36185 rdcohms=0.001771618 %loadloss=0.7237 %noloadloss=0.1524 xhl=2.1557 normhkva=100 emerghkva=140
new object=transformer.b18886-1b phases=1 buses=[b18886.2,x_b18886-b.2] conns=[wye,wye] kvs=[7.2,0.24] kvas=[15,15] taps=[1,1] wdg=1 %r=0.52 rdcohms=15.27552 wdg=2 %r=0.52 rdcohms=0.0169728 %loadloss=1.04 %noloadloss=0.34 xhl=1.5 normhkva=15 emerghkva=21
new object=transformer.5979429639-1b phases=1 buses=[5979429639.2,x_5979429639-b.2] conns=[wye,wye] kvs=[7.2,0.24] kvas=[25,25] taps=[1,1] wdg=1 %r=0.38195 rdcohms=6.732098 wdg=2 %r=0.38195 rdcohms=0.007480109 %loadloss=0.7639 %noloadloss=0.0851 xhl=2.1 normhkva=25 emerghkva=35
new object=transformer.b18941-1a phases=1 buses=[b18941.1,x_b18941-a.1] conns=[wye,wye] kvs=[7.2,0.24] kvas=[38,38] taps=[1,1] wdg=1 %r=0.36105 rdcohms=4.18666 wdg=2 %r=0.36105 rdcohms=0.004651844 %loadloss=0.7221 %noloadloss=0.2423 xhl=1.5158 normhkva=37.5 emerghkva=53.2
new object=transformer.g40138-1c phases=1 buses=[g40138.3,x_g40138-c.3] conns=[wye,wye] kvs=[7.2,0.24] kvas=[15,15] taps=[1,1] wdg=1 %r=0.52 rdcohms=15.27552 wdg=2 %r=0.52 rdcohms=0.0169728 %loadloss=1.04 %noloadloss=0.34 xhl=1.5 normhkva=15 emerghkva=21
new object=transformer.b18855-1b phases=1 buses=[b18855.2,x_b18855-b.2] conns=[wye,wye] kvs=[7.2,0.24] kvas=[15,15] taps=[1,1] wdg=1 %r=0.52 rdcohms=15.27552 wdg=2 %r=0.52 rdcohms=0.0169728 %loadloss=1.04 %noloadloss=0.34 xhl=1.5 normhkva=15 emerghkva=21
new object=transformer.b4673-1a phases=1 buses=[b4673.1,x_b4673-a.1] conns=[wye,wye] kvs=[7.2,0.24] kvas=[25,25] taps=[1,1] wdg=1 %r=0.38195 rdcohms=6.732098 wdg=2 %r=0.38195 rdcohms=0.007480109 %loadloss=0.7639 %noloadloss=0.0851 xhl=2.1 normhkva=25 emerghkva=35
new object=transformer.b19064-1c phases=1 buses=[b19064.3,x_b19064-c.3] conns=[wye,wye] kvs=[7.2,0.24] kvas=[15,15] taps=[1,1] wdg=1 %r=0.52 rdcohms=15.27552 wdg=2 %r=0.52 rdcohms=0.0169728 %loadloss=1.04 %noloadloss=0.34 xhl=1.5 normhkva=15 emerghkva=21
new object=transformer.b45445-1c phases=1 buses=[b45445.3,x_b45445-c.3] conns=[wye,wye] kvs=[7.2,0.24] kvas=[10,10] taps=[1,1] wdg=1 %r=0.511 rdcohms=22.5167 wdg=2 %r=0.511 rdcohms=0.02501856 %loadloss=1.022 %noloadloss=0.3221 xhl=1.707 normhkva=10 emerghkva=14
new object=transformer.b57500-1b phases=1 buses=[b57500.2,x_b57500-b.2] conns=[wye,wye] kvs=[7.2,0.24] kvas=[15,15] taps=[1,1] wdg=1 %r=0.52 rdcohms=15.27552 wdg=2 %r=0.52 rdcohms=0.0169728 %loadloss=1.04 %noloadloss=0.34 xhl=1.5 normhkva=15 emerghkva=21
new object=transformer.b14324-1a phases=1 buses=[b14324.1,x_b14324-a.1] conns=[wye,wye] kvs=[7.2,0.24] kvas=[15,15] taps=[1,1] wdg=1 %r=0.52 rdcohms=15.27552 wdg=2 %r=0.52 rdcohms=0.0169728 %loadloss=1.04 %noloadloss=0.34 xhl=1.5 normhkva=15 emerghkva=21
new object=transformer.b60757-1c phases=1 buses=[b60757.3,x_b60757-c.3] conns=[wye,wye] kvs=[7.2,0.24] kvas=[15,15] taps=[1,1] wdg=1 %r=0.52 rdcohms=15.27552 wdg=2 %r=0.52 rdcohms=0.0169728 %loadloss=1.04 %noloadloss=0.34 xhl=1.5 normhkva=15 emerghkva=21
new object=transformer.g34723-1c phases=1 buses=[g34723.3,x_g34723-c.3] conns=[wye,wye] kvs=[7.2,0.24] kvas=[15,15] taps=[1,1] wdg=1 %r=0.52 rdcohms=15.27552 wdg=2 %r=0.52 rdcohms=0.0169728 %loadloss=1.04 %noloadloss=0.34 xhl=1.5 normhkva=15 emerghkva=21
new object=transformer.b22571-1c phases=1 buses=[b22571.3,x_b22571-c.3] conns=[wye,wye] kvs=[7.2,0.24] kvas=[15,15] taps=[1,1] wdg=1 %r=0.52 rdcohms=15.27552 wdg=2 %r=0.52 rdcohms=0.0169728 %loadloss=1.04 %noloadloss=0.34 xhl=1.5 normhkva=15 emerghkva=21
new object=transformer.b13555-1a phases=1 buses=[b13555.1,x_b13555-a.1] conns=[wye,wye] kvs=[7.2,0.24] kvas=[25,25] taps=[1,1] wdg=1 %r=0.38195 rdcohms=6.732098 wdg=2 %r=0.38195 rdcohms=0.007480109 %loadloss=0.7639 %noloadloss=0.0851 xhl=2.1 normhkva=25 emerghkva=35
new object=transformer.b23889-1c phases=1 buses=[b23889.3,x_b23889-c.3] conns=[wye,wye] kvs=[7.2,0.24] kvas=[15,15] taps=[1,1] wdg=1 %r=0.52 rdcohms=15.27552 wdg=2 %r=0.52 rdcohms=0.0169728 %loadloss=1.04 %noloadloss=0.34 xhl=1.5 normhkva=15 emerghkva=21
new object=transformer.b43440-1b phases=1 buses=[b43440.2,x_b43440-b.2] conns=[wye,wye] kvs=[7.2,0.24] kvas=[38,38] taps=[1,1] wdg=1 %r=0.36105 rdcohms=4.18666 wdg=2 %r=0.36105 rdcohms=0.004651844 %loadloss=0.7221 %noloadloss=0.2423 xhl=1.5158 normhkva=37.5 emerghkva=53.2
new object=transformer.5904428572-1b phases=1 buses=[5904428572.2,x_5904428572-b.2] conns=[wye,wye] kvs=[7.2,0.24] kvas=[15,15] taps=[1,1] wdg=1 %r=0.52 rdcohms=15.27552 wdg=2 %r=0.52 rdcohms=0.0169728 %loadloss=1.04 %noloadloss=0.34 xhl=1.5 normhkva=15 emerghkva=21
new object=transformer.b41085-1b phases=1 buses=[b41085.2,x_b41085-b.2] conns=[wye,wye] kvs=[7.2,0.24] kvas=[25,25] taps=[1,1] wdg=1 %r=0.38195 rdcohms=6.732098 wdg=2 %r=0.38195 rdcohms=0.007480109 %loadloss=0.7639 %noloadloss=0.0851 xhl=2.1 normhkva=25 emerghkva=35
new object=transformer.b41085-1c phases=1 buses=[b41085.3,x_b41085-c.3] conns=[wye,wye] kvs=[7.2,0.24] kvas=[25,25] taps=[1,1] wdg=1 %r=0.38195 rdcohms=6.732098 wdg=2 %r=0.38195 rdcohms=0.007480109 %loadloss=0.7639 %noloadloss=0.0851 xhl=2.1 normhkva=25 emerghkva=35
new object=transformer.b19021-1a phases=1 buses=[b19021.1,x_b19021-a.1] conns=[wye,wye] kvs=[7.2,0.24] kvas=[15,15] taps=[1,1] wdg=1 %r=0.52 rdcohms=15.27552 wdg=2 %r=0.52 rdcohms=0.0169728 %loadloss=1.04 %noloadloss=0.34 xhl=1.5 normhkva=15 emerghkva=21
new object=transformer.6053129341-1b phases=1 buses=[6053129341.2,x_6053129341-b.2] conns=[wye,wye] kvs=[7.2,0.24] kvas=[25,25] taps=[1,1] wdg=1 %r=0.38195 rdcohms=6.732098 wdg=2 %r=0.38195 rdcohms=0.007480109 %loadloss=0.7639 %noloadloss=0.0851 xhl=2.1 normhkva=25 emerghkva=35
new object=transformer.6059129162-1c phases=1 buses=[6059129162.3,x_6059129162-c.3] conns=[wye,wye] kvs=[7.2,0.24] kvas=[25,25] taps=[1,1] wdg=1 %r=0.38195 rdcohms=6.732098 wdg=2 %r=0.38195 rdcohms=0.007480109 %loadloss=0.7639 %noloadloss=0.0851 xhl=2.1 normhkva=25 emerghkva=35
new object=transformer.b60934-1c phases=1 buses=[b60934.3,x_b60934-c.3] conns=[wye,wye] kvs=[7.2,0.24] kvas=[15,15] taps=[1,1] wdg=1 %r=0.52 rdcohms=15.27552 wdg=2 %r=0.52 rdcohms=0.0169728 %loadloss=1.04 %noloadloss=0.34 xhl=1.5 normhkva=15 emerghkva=21
new object=transformer.5993629800-1b phases=1 buses=[5993629800.2,x_5993629800-b.2] conns=[wye,wye] kvs=[7.2,0.24] kvas=[25,25] taps=[1,1] wdg=1 %r=0.38195 rdcohms=6.732098 wdg=2 %r=0.38195 rdcohms=0.007480109 %loadloss=0.7639 %noloadloss=0.0851 xhl=2.1 normhkva=25 emerghkva=35
new object=transformer.b63785-1c phases=1 buses=[b63785.3,x_b63785-c.3] conns=[wye,wye] kvs=[7.2,0.24] kvas=[15,15] taps=[1,1] wdg=1 %r=0.52 rdcohms=15.27552 wdg=2 %r=0.52 rdcohms=0.0169728 %loadloss=1.04 %noloadloss=0.34 xhl=1.5 normhkva=15 emerghkva=21
new object=transformer.b59172-1b phases=1 buses=[b59172.2,x_b59172-b.2] conns=[wye,wye] kvs=[7.2,0.24] kvas=[25,25] taps=[1,1] wdg=1 %r=0.38195 rdcohms=6.732098 wdg=2 %r=0.38195 rdcohms=0.007480109 %loadloss=0.7639 %noloadloss=0.0851 xhl=2.1 normhkva=25 emerghkva=35
new object=transformer.5962929303-1b phases=1 buses=[5962929303.2,x_5962929303-b.2] conns=[wye,wye] kvs=[7.2,0.24] kvas=[25,25] taps=[1,1] wdg=1 %r=0.38195 rdcohms=6.732098 wdg=2 %r=0.38195 rdcohms=0.007480109 %loadloss=0.7639 %noloadloss=0.0851 xhl=2.1 normhkva=25 emerghkva=35
new object=transformer.b4826-1b phases=1 buses=[b4826.2,x_b4826-b.2] conns=[wye,wye] kvs=[7.2,0.24] kvas=[15,15] taps=[1,1] wdg=1 %r=0.52 rdcohms=15.27552 wdg=2 %r=0.52 rdcohms=0.0169728 %loadloss=1.04 %noloadloss=0.34 xhl=1.5 normhkva=15 emerghkva=21