

!!!master.dss
clear
new object=circuit.m1


! redirect vsource.dss
! makebuslist
! redirect busvoltagebases.dss ! set voltage bases
! buscoords buscoords.dss
! giscoords giscoords.dss


!!!loadshape.dss
new object=loadshape.default npts=24 interval=1 mult=[0.677,0.6256,0.6087,0.5833,0.58028,0.6025,0.657,0.7477,0.832,0.88,0.94,0.989,0.985,0.98,0.9898,0.999,1,0.958,0.936,0.913,0.876,0.876,0.828,0.756]
new object=loadshape.23 npts=0 npts=0 mult=[]
new object=loadshape.26 npts=0 npts=0 mult=[]
new object=loadshape.32 npts=0 npts=0 mult=[]
new object=loadshape.36 npts=0 npts=0 mult=[]
new object=loadshape.aggregated npts=0 npts=0 mult=[]


!!!vsource.dss
edit object=vsource.source bus1=sourcebus pu=1.0 basekv=67 r1=0.0518 x1=0.1555 r0=0.0518 x0=0.155


!!!transformer.dss
new object=transformer.m1_xfmr phases=3 windings=2 buses=[sourcebus,temp] conns=[delta,wye] kvs=[67,12.47] kvas=[16800,16800] xhl=8 sub=y subname=m1 mintap=0.95 maxtap=1.05 buses=[sourcebus,temp] conns=[delta,wye] kvs=[67,12.47] kvas=[16800,16800] taps=[1,1.01875] wdg=1 %r=0.2 rdcohms=0.454244 wdg=2 %r=0.2 rdcohms=0.00524507
new object=transformer.xfmr_ae191606_a phases=1 buses=[0x008ddeb0.1,0x008ddeb0_s.1] kvs=[7.2,0.24] kvas=[25,25] xhl=1.57 %loadloss=1.31292 %noloadloss=0.2492
new object=transformer.xfmr_ae300103_a phases=1 buses=[0x008dcbc8.1,0x008dcbc8_s.1] kvs=[7.2,0.24] kvas=[75,75] xhl=1.84 %loadloss=0.836 %noloadloss=0.1466667
new object=transformer.xfmr_ae300104_a phases=1 buses=[0x008dd0f0.1,0x008dd0f0_s.1] kvs=[7.2,0.24] kvas=[75,75] xhl=1.73 %loadloss=0.7777646 %noloadloss=0.1609687
new object=transformer.xfmr_ae300105_c phases=1 buses=[0x008e7f28.3,0x008e7f28_s.3] kvs=[7.2,0.24] kvas=[75,75] xhl=1.54 %loadloss=0.7073333 %noloadloss=0.1852
new object=transformer.xfmr_ae300106_c phases=1 buses=[0x0089eba0.3,0x0089eba0_s.3] kvs=[7.2,0.24] kvas=[75,75] xhl=1.83 %loadloss=0.8017333 %noloadloss=0.1538667
new object=transformer.xfmr_ae300107_c phases=1 buses=[0x0089f280.3,0x0089f280_s.3] kvs=[7.2,0.24] kvas=[75,75] xhl=1.84 %loadloss=0.8248 %noloadloss=0.1513333
new object=transformer.xfmr_ae300108_b phases=1 buses=[0x008c7a18.2,0x008c7a18_s.2] kvs=[7.2,0.24] kvas=[75,75] xhl=1.87 %loadloss=0.8390667 %noloadloss=0.1476
new object=transformer.xfmr_ae300109_b phases=1 buses=[0x008ca358.2,0x008ca358_s.2] kvs=[7.2,0.24] kvas=[50,50] xhl=1.84 %loadloss=0.954 %noloadloss=0.186
new object=transformer.xfmr_ae300110_a phases=1 buses=[0x008ca6c8.1,0x008ca6c8_s.1] kvs=[7.2,0.24] kvas=[75,75] xhl=1.84 %loadloss=0.806 %noloadloss=0.15
new object=transformer.xfmr_ae300111_a phases=1 buses=[0x008c9070.1,0x008c9070_s.1] kvs=[7.2,0.24] kvas=[75,75] xhl=1.54 %loadloss=0.7 %noloadloss=0.1893333
new object=transformer.xfmr_ae300114_c phases=1 buses=[0x008dee30.3,0x008dee30_s.3] kvs=[7.2,0.24] kvas=[25,25] xhl=2.04 %loadloss=1.304 %noloadloss=0.228
new object=transformer.xfmr_ae300115_c phases=1 buses=[0x008e8450.3,0x008e8450_s.3] kvs=[7.2,0.24] kvas=[50,50] xhl=1.5 %loadloss=0.8906804 %noloadloss=0.1857911
new object=transformer.xfmr_ae300116_c phases=1 buses=[0x008c4d68.3,0x008c4d68_s.3] kvs=[7.2,0.24] kvas=[25,25] xhl=2.03 %loadloss=1.256 %noloadloss=0.248
new object=transformer.xfmr_ae300117_c phases=1 buses=[0x008df6c8.3,0x008df6c8_s.3] kvs=[7.2,0.24] kvas=[75,75] xhl=1.8 %loadloss=0.6133333 %noloadloss=0.1826667
new object=transformer.xfmr_ae300118_c phases=1 buses=[0x008e8978.3,0x008e8978_s.3] kvs=[7.2,0.24] kvas=[75,75] xhl=1.82 %loadloss=0.82 %noloadloss=0.1493333
new object=transformer.xfmr_ae300119_c phases=1 buses=[0x008e87c0.3,0x008e87c0_s.3] kvs=[7.2,0.24] kvas=[75,75] xhl=1.82 %loadloss=0.8453333 %noloadloss=0.1493333
new object=transformer.xfmr_ae300120_c phases=1 buses=[0x008da5f0.3,0x008da5f0_s.3] kvs=[7.2,0.24] kvas=[75,75] xhl=1.6 %loadloss=0.7777646 %noloadloss=0.1609687
new object=transformer.xfmr_ae300121_c phases=1 buses=[0x008ea188.3,0x008ea188_s.3] kvs=[7.2,0.24] kvas=[50,50] xhl=1.6 %loadloss=0.8906804 %noloadloss=0.1857911
new object=transformer.xfmr_ae300122_a phases=1 buses=[0x008e9e18.1,0x008e9e18_s.1] kvs=[7.2,0.24] kvas=[75,75] xhl=1.85 %loadloss=0.8084 %noloadloss=0.1509333
new object=transformer.xfmr_ae300123_a phases=1 buses=[0x008dbc48.1,0x008dbc48_s.1] kvs=[7.2,0.24] kvas=[50,50] xhl=1.9 %loadloss=0.962 %noloadloss=0.184
new object=transformer.xfmr_ae300124_b phases=1 buses=[0x008dfbf0.2,0x008dfbf0_s.2] kvs=[7.2,0.24] kvas=[75,75] xhl=1.7 %loadloss=0.7777646 %noloadloss=0.1609687
new object=transformer.xfmr_ae300125_b phases=1 buses=[0x008d0398.2,0x008d0398_s.2] kvs=[7.2,0.24] kvas=[50,50] xhl=1.88 %loadloss=0.94 %noloadloss=0.1888
new object=transformer.xfmr_ae300134_a phases=1 buses=[0x008c5290.1,0x008c5290_s.1] kvs=[7.2,0.24] kvas=[50,50] xhl=1.96 %loadloss=0.964 %noloadloss=0.18
new object=transformer.xfmr_ae300135_a phases=1 buses=[0x008c4bb0.1,0x008c4bb0_s.1] kvs=[7.2,0.24] kvas=[75,75] xhl=1.6 %loadloss=0.7058667 %noloadloss=0.1824
new object=transformer.xfmr_ae300136_a phases=1 buses=[0x008dbfb8.1,0x008dbfb8_s.1] kvs=[7.2,0.24] kvas=[50,50] xhl=1.83 %loadloss=0.944 %noloadloss=0.1842
new object=transformer.xfmr_ae300142_b phases=1 buses=[0x0089dde0.2,0x0089dde0_s.2] kvs=[7.2,0.24] kvas=[75,75] xhl=3.6 %loadloss=0.7777646 %noloadloss=0.1609687
new object=transformer.xfmr_ae300143_b phases=1 buses=[0x0089d700.2,0x0089d700_s.2] kvs=[7.2,0.24] kvas=[25,25] xhl=1.6 %loadloss=1.187487 %noloadloss=0.2502
new object=transformer.xfmr_ae300144_b phases=1 buses=[0x0089e4c0.2,0x0089e4c0_s.2] kvs=[7.2,0.24] kvas=[25,25] xhl=1.6 %loadloss=0.936 %noloadloss=0.276
new object=transformer.xfmr_ae300145_b phases=1 buses=[0x008c5970.2,0x008c5970_s.2] kvs=[7.2,0.24] kvas=[75,75] xhl=1.9 %loadloss=0.8269333 %noloadloss=0.1525333
new object=transformer.xfmr_ae300146_b phases=1 buses=[0x0089d020.2,0x0089d020_s.2] kvs=[7.2,0.24] kvas=[50,50] xhl=1.85 %loadloss=0.9338 %noloadloss=0.1884
new object=transformer.xfmr_ae300147_b phases=1 buses=[0x008c2b70.2,0x008c2b70_s.2] kvs=[7.2,0.24] kvas=[75,75] xhl=1.89 %loadloss=0.8372 %noloadloss=0.1465333
new object=transformer.xfmr_ae300148_b phases=1 buses=[0x008c2490.2,0x008c2490_s.2] kvs=[7.2,0.24] kvas=[75,75] xhl=1.91 %loadloss=0.7501333 %noloadloss=0.1952
new object=transformer.xfmr_ae300149_b phases=1 buses=[0x0089bf70.2,0x0089bf70_s.2] kvs=[7.2,0.24] kvas=[75,75] xhl=1.82 %loadloss=0.8266667 %noloadloss=0.156
new object=transformer.xfmr_ae300150_b phases=1 buses=[0x008c2648.2,0x008c2648_s.2] kvs=[7.2,0.24] kvas=[50,50] xhl=1.87 %loadloss=0.95 %noloadloss=0.18
new object=transformer.xfmr_ae300151_b phases=1 buses=[0x008f3960.2,0x008f3960_s.2] kvs=[7.2,0.24] kvas=[50,50] xhl=1.6 %loadloss=0.8906804 %noloadloss=0.1857911
new object=transformer.xfmr_ae300152_b phases=1 buses=[0x008c7338.2,0x008c7338_s.2] kvs=[7.2,0.24] kvas=[25,25] xhl=1.5 %loadloss=0.928 %noloadloss=0.248
new object=transformer.xfmr_ae300153_c phases=1 buses=[0x0089c260.3,0x0089c260_s.3] kvs=[7.2,0.24] kvas=[75,75] xhl=1.49 %loadloss=0.6453333 %noloadloss=0.1866667
new object=transformer.xfmr_ae300154_c phases=1 buses=[0x008e49e0.3,0x008e49e0_s.3] kvs=[7.2,0.24] kvas=[75,75] xhl=1.7 %loadloss=0.7777646 %noloadloss=0.1609687
new object=transformer.xfmr_ae300155_c phases=1 buses=[0x0089c940.3,0x0089c940_s.3] kvs=[7.2,0.24] kvas=[50,50] xhl=1.87 %loadloss=0.952 %noloadloss=0.184
new object=transformer.xfmr_ae300199_a phases=1 buses=[0x008b8108.1,0x008b8108_s.1] kvs=[7.2,0.24] kvas=[50,50] xhl=2.9 %loadloss=1.187487 %noloadloss=0.2502
new object=transformer.xfmr_ae300199_c phases=1 buses=[0x008b8108.3,0x008b8108_s.3] kvs=[7.2,0.24] kvas=[50,50] xhl=2.9 %loadloss=1.187487 %noloadloss=0.2502
new object=transformer.xfmr_ae300202_a phases=1 buses=[0x008e44b8.1,0x008e44b8_s.1] kvs=[7.2,0.24] kvas=[50,50] xhl=1.92 %loadloss=0.9506 %noloadloss=0.1796
new object=transformer.xfmr_ae300203_a phases=1 buses=[0x008db8d8.1,0x008db8d8_s.1] kvs=[7.2,0.24] kvas=[75,75] xhl=1.84 %loadloss=0.832 %noloadloss=0.144
new object=transformer.xfmr_ae300204_a phases=1 buses=[0x008d9678.1,0x008d9678_s.1] kvs=[7.2,0.24] kvas=[50,50] xhl=1.88 %loadloss=0.9432 %noloadloss=0.1872
new object=transformer.xfmr_ae300206_a phases=1 buses=[0x008dd7d0.1,0x008dd7d0_s.1] kvs=[7.2,0.24] kvas=[50,50] xhl=1.5 %loadloss=0.8906804 %noloadloss=0.1857911
new object=transformer.xfmr_ae300207_a phases=1 buses=[0x008d2618.1,0x008d2618_s.1] kvs=[7.2,0.24] kvas=[75,75] xhl=1.73 %loadloss=0.7413333 %noloadloss=0.1866667
new object=transformer.xfmr_ae300208_a phases=1 buses=[0x008e74d8.1,0x008e74d8_s.1] kvs=[7.2,0.24] kvas=[75,75] xhl=1.66 %loadloss=0.7426667 %noloadloss=0.188
new object=transformer.xfmr_ae300209_a phases=1 buses=[0x008e5278.1,0x008e5278_s.1] kvs=[7.2,0.24] kvas=[50,50] xhl=1.5 %loadloss=0.8906804 %noloadloss=0.1857911
new object=transformer.xfmr_ae300216_b phases=1 buses=[0x008eda38.2,0x008eda38_s.2] kvs=[7.2,0.24] kvas=[75,75] xhl=1.8 %loadloss=0.8057333 %noloadloss=0.1533333
new object=transformer.xfmr_ae300217_b phases=1 buses=[0x008d7dc8.2,0x008d7dc8_s.2] kvs=[7.2,0.24] kvas=[75,75] xhl=1.84 %loadloss=0.8316 %noloadloss=0.1509333
new object=transformer.xfmr_ae300225_c phases=1 buses=[0x008df1a0.3,0x008df1a0_s.3] kvs=[7.2,0.24] kvas=[50,50] xhl=1.83 %loadloss=0.946 %noloadloss=0.186
new object=transformer.xfmr_ae300226_a phases=1 buses=[0x008e8ce8.1,0x008e8ce8_s.1] kvs=[7.2,0.24] kvas=[75,75] xhl=1.8 %loadloss=0.7777646 %noloadloss=0.1609687
new object=transformer.xfmr_ae300227_a phases=1 buses=[0x008e6560.1,0x008e6560_s.1] kvs=[7.2,0.24] kvas=[50,50] xhl=1.97 %loadloss=0.9874 %noloadloss=0.1826
new object=transformer.xfmr_ae300229_a phases=1 buses=[0x008e7168.1,0x008e7168_s.1] kvs=[7.2,0.24] kvas=[75,75] xhl=1.98 %loadloss=0.7777646 %noloadloss=0.1609687
new object=transformer.xfmr_ae300234_a phases=1 buses=[0x008e93c8.1,0x008e93c8_s.1] kvs=[7.2,0.24] kvas=[75,75] xhl=1.57 %loadloss=0.8253333 %noloadloss=0.1626667
new object=transformer.xfmr_ae300235_b phases=1 buses=[0x008e7320.2,0x008e7320_s.2] kvs=[7.2,0.24] kvas=[50,50] xhl=1.88 %loadloss=0.9614 %noloadloss=0.1774
new object=transformer.xfmr_ae300236_b phases=1 buses=[0x008e7848.2,0x008e7848_s.2] kvs=[7.2,0.24] kvas=[50,50] xhl=1.77 %loadloss=1.1247 %noloadloss=0.19808
new object=transformer.xfmr_ae300237_b phases=1 buses=[0x008e4300.2,0x008e4300_s.2] kvs=[7.2,0.24] kvas=[75,75] xhl=1.93 %loadloss=0.7777646 %noloadloss=0.1609687
new object=transformer.xfmr_ae300238_b phases=1 buses=[0x008e2750.2,0x008e2750_s.2] kvs=[7.2,0.24] kvas=[50,50] xhl=1.87 %loadloss=0.9544 %noloadloss=0.1862
new object=transformer.xfmr_ae300239_b phases=1 buses=[0x008e2ac0.2,0x008e2ac0_s.2] kvs=[7.2,0.24] kvas=[50,50] xhl=1.71 %loadloss=0.8906804 %noloadloss=0.1857911
new object=transformer.xfmr_ae300240_c phases=1 buses=[0x008eb998.3,0x008eb998_s.3] kvs=[7.2,0.24] kvas=[50,50] xhl=1.86 %loadloss=0.939 %noloadloss=0.1854
new object=transformer.xfmr_ae300241_c phases=1 buses=[0x008eb2b8.3,0x008eb2b8_s.3] kvs=[7.2,0.24] kvas=[50,50] xhl=1.6 %loadloss=0.8906804 %noloadloss=0.1857911
new object=transformer.xfmr_ae300242_c phases=1 buses=[0x008ed358.3,0x008ed358_s.3] kvs=[7.2,0.24] kvas=[50,50] xhl=1.54 %loadloss=0.7088 %noloadloss=0.1836
new object=transformer.xfmr_ae300243_c phases=1 buses=[0x008e2fe8.3,0x008e2fe8_s.3] kvs=[7.2,0.24] kvas=[75,75] xhl=1.6 %loadloss=0.7777646 %noloadloss=0.1609687
new object=transformer.xfmr_ae300244_c phases=1 buses=[0x008e3510.3,0x008e3510_s.3] kvs=[7.2,0.24] kvas=[50,50] xhl=1.55 %loadloss=0.7142 %noloadloss=0.1926
new object=transformer.xfmr_ae300245_c phases=1 buses=[0x008e68d0.3,0x008e68d0_s.3] kvs=[7.2,0.24] kvas=[50,50] xhl=1.57 %loadloss=0.7608 %noloadloss=0.191
new object=transformer.xfmr_ae300253_b phases=1 buses=[0x008e9c60.2,0x008e9c60_s.2] kvs=[7.2,0.24] kvas=[50,50] xhl=1.6 %loadloss=0.8906804 %noloadloss=0.1857911
new object=transformer.xfmr_ae300253_c phases=1 buses=[0x008e9c60.3,0x008e9c60_s.3] kvs=[7.2,0.24] kvas=[50,50] xhl=1.6 %loadloss=0.8906804 %noloadloss=0.1857911
new object=transformer.xfmr_ae300255_b phases=1 buses=[0x008df510.2,0x008df510_s.2] kvs=[7.2,0.24] kvas=[38,38] xhl=1.9 %loadloss=0.8906804 %noloadloss=0.1857911
new object=transformer.xfmr_ae300255_c phases=1 buses=[0x008df510.3,0x008df510_s.3] kvs=[7.2,0.24] kvas=[38,38] xhl=1.9 %loadloss=0.8906804 %noloadloss=0.1857911
new object=transformer.xfmr_ae300257_a phases=1 buses=[0x008e7d70.1,0x008e7d70_s.1] kvs=[7.2,0.12] kvas=[25,25] xhl=2.1 %loadloss=1.187487 %noloadloss=0.2502
new object=transformer.xfmr_ae300257_b phases=1 buses=[0x008e7d70.2,0x008e7d70_s.2] kvs=[7.2,0.12] kvas=[25,25] xhl=2.1 %loadloss=1.187487 %noloadloss=0.2502
new object=transformer.xfmr_ae300257_c phases=1 buses=[0x008e7d70.3,0x008e7d70_s.3] kvs=[7.2,0.12] kvas=[25,25] xhl=2.1 %loadloss=1.187487 %noloadloss=0.2502
new object=transformer.xfmr_ae300701_a phases=1 buses=[0x008ce818.1,0x008ce818_s.1] kvs=[7.2,0.24] kvas=[75,75] xhl=1.77 %loadloss=0.748 %noloadloss=0.172
new object=transformer.xfmr_ae300702_b phases=1 buses=[0x008d3ac0.2,0x008d3ac0_s.2] kvs=[7.2,0.24] kvas=[75,75] xhl=1.59 %loadloss=0.7085333 %noloadloss=0.1870667
new object=transformer.xfmr_ae300703_b phases=1 buses=[0x008cd8a0.2,0x008cd8a0_s.2] kvs=[7.2,0.24] kvas=[75,75] xhl=3.1 %loadloss=0.7777646 %noloadloss=0.1609687
new object=transformer.xfmr_ae300704_b phases=1 buses=[0x008de598.2,0x008de598_s.2] kvs=[7.2,0.24] kvas=[75,75] xhl=1.87 %loadloss=0.8278667 %noloadloss=0.1521333
new object=transformer.xfmr_ae300705_b phases=1 buses=[0x008d3598.2,0x008d3598_s.2] kvs=[7.2,0.24] kvas=[75,75] xhl=1.65 %loadloss=0.7706667 %noloadloss=0.1813333
new object=transformer.xfmr_ae300706_b phases=1 buses=[0x008d33e0.2,0x008d33e0_s.2] kvs=[7.2,0.24] kvas=[75,75] xhl=1.83 %loadloss=0.8346667 %noloadloss=0.1506667
new object=transformer.xfmr_ae300707_b phases=1 buses=[0x008d4510.2,0x008d4510_s.2] kvs=[7.2,0.24] kvas=[50,50] xhl=1.9 %loadloss=0.962 %noloadloss=0.18
new object=transformer.xfmr_ae300710_c phases=1 buses=[0x008d4880.3,0x008d4880_s.3] kvs=[7.2,0.24] kvas=[75,75] xhl=1.6 %loadloss=0.7118667 %noloadloss=0.1886667
new object=transformer.xfmr_ae300711_c phases=1 buses=[0x008d4f60.3,0x008d4f60_s.3] kvs=[7.2,0.24] kvas=[75,75] xhl=2.2 %loadloss=0.7777646 %noloadloss=0.1609687
new object=transformer.xfmr_ae300712_c phases=1 buses=[0x008d5d20.3,0x008d5d20_s.3] kvs=[7.2,0.24] kvas=[75,75] xhl=1.6 %loadloss=0.5853333 %noloadloss=0.2026667
new object=transformer.xfmr_ae300713_c phases=1 buses=[0x008d6400.3,0x008d6400_s.3] kvs=[7.2,0.24] kvas=[75,75] xhl=1.7 %loadloss=0.5813333 %noloadloss=0.1986667
new object=transformer.xfmr_ae300714_c phases=1 buses=[0x008d5488.3,0x008d5488_s.3] kvs=[7.2,0.24] kvas=[50,50] xhl=1.67 %loadloss=0.606 %noloadloss=0.206
new object=transformer.xfmr_ae300715_c phases=1 buses=[0x008d4bf0.3,0x008d4bf0_s.3] kvs=[7.2,0.24] kvas=[75,75] xhl=1.54 %loadloss=0.5253333 %noloadloss=0.2093333
new object=transformer.xfmr_ae300808_b phases=1 buses=[0x008d0de8.2,0x008d0de8_s.2] kvs=[7.2,0.24] kvas=[50,50] xhl=1.3 %loadloss=0.8906804 %noloadloss=0.1857911
new object=transformer.xfmr_ae300809_b phases=1 buses=[0x008cce50.2,0x008cce50_s.2] kvs=[7.2,0.24] kvas=[50,50] xhl=1.86 %loadloss=0.9472 %noloadloss=0.1828
new object=transformer.xfmr_ae300810_b phases=1 buses=[0x008d3e30.2,0x008d3e30_s.2] kvs=[7.2,0.24] kvas=[75,75] xhl=1.84 %loadloss=0.8213333 %noloadloss=0.1466667
new object=transformer.xfmr_ae300811_b phases=1 buses=[0x008d14e8.2,0x008d14e8_s.2] kvs=[7.2,0.24] kvas=[75,75] xhl=1.6 %loadloss=0.7777646 %noloadloss=0.1609687
new object=transformer.xfmr_ae300812_b phases=1 buses=[0x008d1f38.2,0x008d1f38_s.2] kvs=[7.2,0.24] kvas=[75,75] xhl=1.3 %loadloss=0.7777646 %noloadloss=0.1609687
new object=transformer.xfmr_ae300813_b phases=1 buses=[0x008dd618.2,0x008dd618_s.2] kvs=[7.2,0.24] kvas=[75,75] xhl=1.8 %loadloss=0.7777646 %noloadloss=0.1609687
new object=transformer.xfmr_ae300814_a phases=1 buses=[0x008dff60.1,0x008dff60_s.1] kvs=[7.2,0.24] kvas=[50,50] xhl=1.3 %loadloss=0.8906804 %noloadloss=0.1857911
new object=transformer.xfmr_ae300815_b phases=1 buses=[0x008ee520.2,0x008ee520_s.2] kvs=[7.2,0.24] kvas=[38,38] xhl=1.5 %loadloss=0.8906804 %noloadloss=0.1857911
new object=transformer.xfmr_ae300817_b phases=1 buses=[0x008cb488.2,0x008cb488_s.2] kvs=[7.2,0.24] kvas=[75,75] xhl=1.82 %loadloss=0.8186667 %noloadloss=0.1544
new object=transformer.xfmr_ae300818_b phases=1 buses=[0x008c8990.2,0x008c8990_s.2] kvs=[7.2,0.24] kvas=[75,75] xhl=1.88 %loadloss=0.8361333 %noloadloss=0.1565333
new object=transformer.xfmr_ae300819_a phases=1 buses=[0x008cada8.1,0x008cada8_s.1] kvs=[7.2,0.24] kvas=[75,75] xhl=1.86 %loadloss=0.8268 %noloadloss=0.1550667
new object=transformer.xfmr_ae300820_a phases=1 buses=[0x008dc858.1,0x008dc858_s.1] kvs=[7.2,0.24] kvas=[75,75] xhl=3.21 %loadloss=0.942 %noloadloss=0.04306667
new object=transformer.xfmr_ae300821_a phases=1 buses=[0x008d0708.1,0x008d0708_s.1] kvs=[7.2,0.24] kvas=[75,75] xhl=2.26 %loadloss=0.8981333 %noloadloss=0.1548
new object=transformer.xfmr_ae300822_a phases=1 buses=[0x008e8b30.1,0x008e8b30_s.1] kvs=[7.2,0.24] kvas=[75,75] xhl=1.57 %loadloss=0.7073333 %noloadloss=0.1857333
new object=transformer.xfmr_ae300823_c phases=1 buses=[0x008c7860.3,0x008c7860_s.3] kvs=[7.2,0.24] kvas=[75,75] xhl=1.49 %loadloss=0.6106667 %noloadloss=0.2013333
new object=transformer.xfmr_ae300825_b phases=1 buses=[0x008cc090.2,0x008cc090_s.2] kvs=[7.2,0.24] kvas=[50,50] xhl=1.87 %loadloss=0.9586 %noloadloss=0.1782
new object=transformer.xfmr_ae300826_b phases=1 buses=[0x008cd530.2,0x008cd530_s.2] kvs=[7.2,0.24] kvas=[75,75] xhl=1.85 %loadloss=0.812 %noloadloss=0.1453333
new object=transformer.xfmr_ae300827_b phases=1 buses=[0x008cdc10.2,0x008cdc10_s.2] kvs=[7.2,0.24] kvas=[75,75] xhl=1.84 %loadloss=0.816 %noloadloss=0.152
new object=transformer.xfmr_ae300828_b phases=1 buses=[0x008ce138.2,0x008ce138_s.2] kvs=[7.2,0.24] kvas=[50,50] xhl=1.8 %loadloss=0.8906804 %noloadloss=0.1857911
new object=transformer.xfmr_ae300829_b phases=1 buses=[0x008da7a8.2,0x008da7a8_s.2] kvs=[7.2,0.24] kvas=[50,50] xhl=1.83 %loadloss=0.9566 %noloadloss=0.1958
new object=transformer.xfmr_ae300830_b phases=1 buses=[0x008d01e0.2,0x008d01e0_s.2] kvs=[7.2,0.24] kvas=[50,50] xhl=1.85 %loadloss=0.9404 %noloadloss=0.1848
new object=transformer.xfmr_ae300831_c phases=1 buses=[0x008cb9b0.3,0x008cb9b0_s.3] kvs=[7.2,0.24] kvas=[50,50] xhl=1.68 %loadloss=0.654 %noloadloss=0.216
new object=transformer.xfmr_ae300832_c phases=1 buses=[0x008cc770.3,0x008cc770_s.3] kvs=[7.2,0.24] kvas=[75,75] xhl=1.82 %loadloss=0.8226667 %noloadloss=0.148
new object=transformer.xfmr_ae300833_c phases=1 buses=[0x008cf0b0.3,0x008cf0b0_s.3] kvs=[7.2,0.24] kvas=[75,75] xhl=1.8 %loadloss=0.7777646 %noloadloss=0.1609687
new object=transformer.xfmr_ae300834_c phases=1 buses=[0x008c50d8.3,0x008c50d8_s.3] kvs=[7.2,0.24] kvas=[50,50] xhl=1.92 %loadloss=0.966 %noloadloss=0.186
new object=transformer.xfmr_ae300835_c phases=1 buses=[0x008cf790.3,0x008cf790_s.3] kvs=[7.2,0.24] kvas=[50,50] xhl=1.62 %loadloss=0.6696 %noloadloss=0.2108
new object=transformer.xfmr_ae300836_c phases=1 buses=[0x008cfe70.3,0x008cfe70_s.3] kvs=[7.2,0.24] kvas=[50,50] xhl=1.8 %loadloss=0.8906804 %noloadloss=0.1857911
new object=transformer.xfmr_ae300901_a phases=1 buses=[0x008c6fc8.1,0x008c6fc8_s.1] kvs=[7.2,0.24] kvas=[75,75] xhl=1.6 %loadloss=0.7777646 %noloadloss=0.1609687
new object=transformer.xfmr_ae300902_a phases=1 buses=[0x008c8eb8.1,0x008c8eb8_s.1] kvs=[7.2,0.24] kvas=[75,75] xhl=1.85 %loadloss=0.8186667 %noloadloss=0.152
new object=transformer.xfmr_ae300903_b phases=1 buses=[0x008f2830.2,0x008f2830_s.2] kvs=[7.2,0.24] kvas=[100,100] xhl=1.82 %loadloss=0.679 %noloadloss=0.171
new object=transformer.xfmr_ae300904_b phases=1 buses=[0x008d1330.2,0x008d1330_s.2] kvs=[7.2,0.24] kvas=[75,75] xhl=1.7 %loadloss=0.7777646 %noloadloss=0.1609687
new object=transformer.xfmr_ae300905_b phases=1 buses=[0x008d8660.2,0x008d8660_s.2] kvs=[7.2,0.24] kvas=[75,75] xhl=1.69 %loadloss=0.7453333 %noloadloss=0.1746667
new object=transformer.xfmr_ae300906_b phases=1 buses=[0x008d4358.2,0x008d4358_s.2] kvs=[7.2,0.24] kvas=[75,75] xhl=1.57 %loadloss=0.648 %noloadloss=0.1973333
new object=transformer.xfmr_ae300907_b phases=1 buses=[0x008d1bc8.2,0x008d1bc8_s.2] kvs=[7.2,0.24] kvas=[75,75] xhl=1.72 %loadloss=0.7613333 %noloadloss=0.1826667
new object=transformer.xfmr_ae300908_b phases=1 buses=[0x008d6ae0.2,0x008d6ae0_s.2] kvs=[7.2,0.24] kvas=[75,75] xhl=1.65 %loadloss=0.752 %noloadloss=0.1773333
new object=transformer.xfmr_ae300911_c phases=1 buses=[0x008d41a0.3,0x008d41a0_s.3] kvs=[7.2,0.24] kvas=[75,75] xhl=1.68 %loadloss=0.7613333 %noloadloss=0.1706667
new object=transformer.xfmr_ae300912_c phases=1 buses=[0x008eaa20.3,0x008eaa20_s.3] kvs=[7.2,0.24] kvas=[75,75] xhl=1.87 %loadloss=0.8517333 %noloadloss=0.1497333
new object=transformer.xfmr_ae300913_c phases=1 buses=[0x008d3228.3,0x008d3228_s.3] kvs=[7.2,0.24] kvas=[50,50] xhl=1.86 %loadloss=0.9628 %noloadloss=0.1786
new object=transformer.xfmr_ae300914_a phases=1 buses=[0x008ce2f0.1,0x008ce2f0_s.1] kvs=[7.2,0.24] kvas=[75,75] xhl=1.64 %loadloss=0.7706667 %noloadloss=0.1733333
new object=transformer.xfmr_ae300915_a phases=1 buses=[0x008c8b48.1,0x008c8b48_s.1] kvs=[7.2,0.24] kvas=[75,75] xhl=1.85 %loadloss=0.8093333 %noloadloss=0.1488
new object=transformer.xfmr_ae300916_a phases=1 buses=[0x008cf5d8.1,0x008cf5d8_s.1] kvs=[7.2,0.24] kvas=[75,75] xhl=1.66 %loadloss=0.7533333 %noloadloss=0.172
new object=transformer.xfmr_ae300917_a phases=1 buses=[0x008dc4e8.1,0x008dc4e8_s.1] kvs=[7.2,0.24] kvas=[75,75] xhl=1.67 %loadloss=0.752 %noloadloss=0.176
new object=transformer.xfmr_ae300918_a phases=1 buses=[0x008d2460.1,0x008d2460_s.1] kvs=[7.2,0.24] kvas=[75,75] xhl=3.2 %loadloss=0.9534667 %noloadloss=0.04506667
new object=transformer.xfmr_ae300919_a phases=1 buses=[0x008d5ed8.1,0x008d5ed8_s.1] kvs=[7.2,0.24] kvas=[50,50] xhl=1.77 %loadloss=1.12942 %noloadloss=0.18444
new object=transformer.xfmr_ae300920_a phases=1 buses=[0x008cd6e8.1,0x008cd6e8_s.1] kvs=[7.2,0.24] kvas=[75,75] xhl=3.21 %loadloss=0.9374667 %noloadloss=0.042
new object=transformer.xfmr_ae300921_b phases=1 buses=[0x008b8d10.2,0x008b8d10_s.2] kvs=[7.2,0.24] kvas=[50,50] xhl=1.78 %loadloss=1.10798 %noloadloss=0.19434
new object=transformer.xfmr_ae300922_b phases=1 buses=[0x008eb470.2,0x008eb470_s.2] kvs=[7.2,0.24] kvas=[50,50] xhl=1.78 %loadloss=0.9256 %noloadloss=0.1784
new object=transformer.xfmr_ae300923_b phases=1 buses=[0x008d5118.2,0x008d5118_s.2] kvs=[7.2,0.24] kvas=[50,50] xhl=1.69 %loadloss=0.9829 %noloadloss=0.20862
new object=transformer.xfmr_ae301003_c phases=1 buses=[0x008d82f0.3,0x008d82f0_s.3] kvs=[7.2,0.24] kvas=[75,75] xhl=1.7 %loadloss=0.7777646 %noloadloss=0.1609687
new object=transformer.xfmr_ae301004_c phases=1 buses=[0x00899528.3,0x00899528_s.3] kvs=[7.2,0.24] kvas=[75,75] xhl=1.9 %loadloss=0.8353333 %noloadloss=0.1501333
new object=transformer.xfmr_ae301005_c phases=1 buses=[0x008d6c98.3,0x008d6c98_s.3] kvs=[7.2,0.24] kvas=[50,50] xhl=1.61 %loadloss=0.678 %noloadloss=0.222
new object=transformer.xfmr_ae301006_c phases=1 buses=[0x008d7008.3,0x008d7008_s.3] kvs=[7.2,0.24] kvas=[50,50] xhl=1.6 %loadloss=0.8906804 %noloadloss=0.1857911
new object=transformer.xfmr_ae301007_c phases=1 buses=[0x008c93e0.3,0x008c93e0_s.3] kvs=[7.2,0.24] kvas=[50,50] xhl=1.62 %loadloss=0.72 %noloadloss=0.198
new object=transformer.xfmr_ae301008_c phases=1 buses=[0x008d8d40.3,0x008d8d40_s.3] kvs=[7.2,0.24] kvas=[75,75] xhl=1.84 %loadloss=0.8476 %noloadloss=0.1564
new object=transformer.xfmr_ae301009_c phases=1 buses=[0x008d78a0.3,0x008d78a0_s.3] kvs=[7.2,0.24] kvas=[75,75] xhl=1.7 %loadloss=0.7777646 %noloadloss=0.1609687
new object=transformer.xfmr_ae301010_c phases=1 buses=[0x008d7c10.3,0x008d7c10_s.3] kvs=[7.2,0.24] kvas=[75,75] xhl=1.61 %loadloss=0.7332 %noloadloss=0.1786667
new object=transformer.xfmr_ae301011_c phases=1 buses=[0x008eb7e0.3,0x008eb7e0_s.3] kvs=[7.2,0.24] kvas=[50,50] xhl=1.61 %loadloss=0.7192 %noloadloss=0.1914
new object=transformer.xfmr_ae301016_a phases=1 buses=[0x008d8138.1,0x008d8138_s.1] kvs=[7.2,0.24] kvas=[50,50] xhl=1.9 %loadloss=0.9604 %noloadloss=0.1836
new object=transformer.xfmr_ae301017_a phases=1 buses=[0x008d89d0.1,0x008d89d0_s.1] kvs=[7.2,0.24] kvas=[75,75] xhl=1.85 %loadloss=0.8229333 %noloadloss=0.1484
new object=transformer.xfmr_ae301018_a phases=1 buses=[0x008dec78.1,0x008dec78_s.1] kvs=[7.2,0.24] kvas=[75,75] xhl=1.9 %loadloss=0.8117333 %noloadloss=0.1488
new object=transformer.xfmr_ae301019_a phases=1 buses=[0x008996e0.1,0x008996e0_s.1] kvs=[7.2,0.24] kvas=[50,50] xhl=1.66 %loadloss=0.928 %noloadloss=0.172
new object=transformer.xfmr_ae301020_a phases=1 buses=[0x008d9830.1,0x008d9830_s.1] kvs=[7.2,0.24] kvas=[50,50] xhl=1.67 %loadloss=0.8906804 %noloadloss=0.1857911
new object=transformer.xfmr_ae301021_a phases=1 buses=[0x008d9ba0.1,0x008d9ba0_s.1] kvs=[7.2,0.24] kvas=[50,50] xhl=1.66 %loadloss=0.91 %noloadloss=0.172
new object=transformer.xfmr_ae301022_c phases=1 buses=[0x008d08c0.3,0x008d08c0_s.3] kvs=[7.2,0.24] kvas=[50,50] xhl=1.53 %loadloss=0.72 %noloadloss=0.1808
new object=transformer.xfmr_ae301517_c phases=1 buses=[0x008da438.3,0x008da438_s.3] kvs=[7.2,0.24] kvas=[50,50] xhl=1.77 %loadloss=1.14838 %noloadloss=0.1899
new object=transformer.xfmr_ae301518_c phases=1 buses=[0x008da960.3,0x008da960_s.3] kvs=[7.2,0.24] kvas=[50,50] xhl=1.64 %loadloss=0.6738 %noloadloss=0.181
new object=transformer.xfmr_ae301519_c phases=1 buses=[0x008dacd0.3,0x008dacd0_s.3] kvs=[7.2,0.24] kvas=[75,75] xhl=1.49 %loadloss=0.6506667 %noloadloss=0.1933333
new object=transformer.xfmr_ae301520_a phases=1 buses=[0x008db568.1,0x008db568_s.1] kvs=[7.2,0.24] kvas=[50,50] xhl=1.63 %loadloss=0.674 %noloadloss=0.2016
new object=transformer.xfmr_ae301521_a phases=1 buses=[0x008db040.1,0x008db040_s.1] kvs=[7.2,0.24] kvas=[50,50] xhl=1.86 %loadloss=0.936 %noloadloss=0.188
new object=transformer.xfmr_ae300247 phases=3 buses=[0x008e6fb0,0x008e6fb0_s] kvs=[12.47,0.208] kvas=[225,225] xhl=4.8 %loadloss=0.7576667 %noloadloss=0.1905667
new object=transformer.xfmr_ae300250 phases=3 buses=[0x008e7a00,0x008e7a00_s] kvs=[12.47,0.208] kvas=[150,150] xhl=2.09 %loadloss=0.8787333 %noloadloss=0.2020667
new object=transformer.xfmr_ae300322 phases=3 buses=[0x0089e678,0x0089e678_s] kvs=[12.47,0.208] kvas=[300,300] xhl=4.46 %loadloss=0.6366 %noloadloss=0.1790667
new object=transformer.xfmr_ae301090 phases=3 buses=[0x008d3070,0x008d3070_s] kvs=[12.47,0.48] kvas=[750,750] xhl=6.01 %loadloss=0.6524 %noloadloss=0.1081333


!!!regcontrol.dss
new object=regcontrol.m1_xfmr_regulator transformer=m1_xfmr winding=2 tapwinding=2 vreg=122.0 band=3.0 ptratio=60 bus=temp enabled=true delay=15 tapdelay=45


!!!wiredata.dss
new object=wiredata.750a diam=0.997 gmrac=0.0319 gmrunits=ft rac=0.0888 radunits=in runits=mi normamps=602
new object=wiredata.500a diam=0.813 gmrac=0.026 gmrunits=ft rac=0.206 radunits=in runits=mi normamps=483
new object=wiredata.1/0a diam=0.368 gmrac=0.0111 gmrunits=ft rac=0.97 radunits=in runits=mi normamps=202
new object=wiredata.340a diam=0.666 gmrac=0.021 gmrunits=ft rac=0.305 radunits=in runits=mi normamps=410


!!!linegeometry.dss
new object=linegeometry.750a_qx3 nconds=4 nphases=3 cond=1 wire=750a x=0 h=35 units=ft cond=2 wire=750a x=0.08 h=34.92 units=ft cond=3 wire=750a x=0 h=34.83 units=ft cond=4 wire=750a x=-0.08 h=34.92 units=ft reduce=yes

new object=linegeometry.500a_qx3 nconds=4 nphases=3 cond=1 wire=500a x=0 h=35 units=ft cond=2 wire=500a x=0.068 h=34.932 units=ft cond=3 wire=500a x=0 h=34.864 units=ft cond=4 wire=500a x=-0.068 h=34.932 units=ft reduce=yes

new object=linegeometry.1/0a_qx3 nconds=4 nphases=3 cond=1 wire=1/0a x=0 h=35 units=ft cond=2 wire=1/0a x=0.0307 h=34.969 units=ft cond=3 wire=1/0a x=0 h=34.939 units=ft cond=4 wire=1/0a x=-0.0307 h=34.969 units=ft reduce=yes

new object=linegeometry.340a_qx3 nconds=4 nphases=3 cond=1 wire=340a x=0 h=35 units=ft cond=2 wire=340a x=0.0555 h=34.94 units=ft cond=3 wire=340a x=0 h=34.889 units=ft cond=4 wire=340a x=-0.0555 h=34.94 units=ft reduce=yes



!!!linecode.dss
new object=linecode.6 nphases=3 rmatrix=[0.75725409,0.01804955,0.01804955|0.01804955,0.75725409,0.01804955|0.01804955,0.01804955,0.75725409] xmatrix=[0.30170015,0.27038088,0.26241611|0.27038088,0.30170015,0.27038088|0.26241611,0.27038088,0.30170015] cmatrix=[15.00000000,-12.00000000,-12.00000000 |-12.00000000,15.00000000,-12.00000000 |-12.00000000,-12.00000000,15.00000000] normamps=65 emergamps=81.25
new object=linecode.4 nphases=3 rmatrix=[0.48263288,0.01804955,0.01804955|0.01804955,0.48263288,0.01804955|0.01804955,0.01804955,0.48263288] xmatrix=[0.29636587,0.26505374,0.25708896|0.26505374,0.29636587,0.26505374|0.25708896,0.26505374,0.29636587] cmatrix=[15.00000000,-12.00000000,-12.00000000 |-12.00000000,15.00000000,-12.00000000 |-12.00000000,-12.00000000,15.00000000] normamps=90 emergamps=112.5
new object=linecode.2 nphases=3 rmatrix=[0.30990561,0.01804955,0.01804955|0.01804955,0.30990561,0.01804955|0.01804955,0.01804955,0.30990561] xmatrix=[0.29102854,0.25976762,0.25180285|0.25976762,0.29102854,0.25976762|0.25180285,0.25976762,0.29102854] cmatrix=[15.00000000,-12.00000000,-12.00000000 |-12.00000000,15.00000000,-12.00000000 |-12.00000000,-12.00000000,15.00000000] normamps=156 emergamps=195
new object=linecode.1 nphases=3 rmatrix=[0.24986773,0.01804955,0.01804955|0.01804955,0.24986773,0.01804955|0.01804955,0.01804955,0.24986773] xmatrix=[0.28837672,0.25709580,0.24913103|0.25709580,0.28837672,0.25709580|0.24913103,0.25709580,0.28837672] cmatrix=[15.00000000,-12.00000000,-12.00000000 |-12.00000000,15.00000000,-12.00000000 |-12.00000000,-12.00000000,15.00000000] normamps=177 emergamps=221.25
new object=linecode.1/0a normamps=202 emergamps=252.5 neutral=0 kron=n nphases=1 rmatrix=[0.25386817] xmatrix=[0.07582623] cmatrix=[15.00000000]