

!!!master.dss
clear
new object=circuit.ckt24


! redirect vsource.dss
! makebuslist
! redirect busvoltagebases.dss ! set voltage bases
! buscoords buscoords.dss
! giscoords giscoords.dss


!!!loadshape.dss
new object=loadshape.default npts=24 interval=1 mult=[0.677,0.6256,0.6087,0.5833,0.58028,0.6025,0.657,0.7477,0.832,0.88,0.94,0.989,0.985,0.98,0.9898,0.999,1,0.958,0.936,0.913,0.876,0.876,0.828,0.756]
new object=loadshape.ls_phasea npts=8760 interval=1 mult=[0.446556,0.433551,0.420505,0.415724,0.428804,0.440051,0.455372,0.47703,0.512115,0.528054,0.541378,0.540514,0.539069,0.53113,0.518723,0.515207,0.540034,0.578991,0.585453,0.574614,0.563124,0.564756,0.560656,0.542101,0.529216,0.527412,0.542855,0.547909,0.55859,0.589083,0.622906,0.657651,0.669925,0.687563,0.690294,0.673419,0.666402,0.6459,0.636252,0.63605,0.685308,0.745319,0.760631,0.759415,0.750893,0.741528,0.711185,0.694042,0.682403,0.696535,0.693703,0.689598,0.708524,0.733004,0.769093,0.800172,0.80375,0.7911,0.754171,0.718043,0.688155,0.655483,0.630236,0.622659,0.662376,0.744427,0.757228,0.747304,0.74522,0.699093,0.683249,0.648271,0.633027,0.63036,0.643891,0.644802,0.669378,0.720318,0.798268,0.838683,0.800832,0.745042,0.707478,0.687919,0.664018,0.643158,0.627202,0.612949,0.645784,0.717497,0.741001,0.741359,0.729839,0.700172,0.660172,0.63017,0.611026,0.620726,0.632751,0.638025,0.648348,0.681856,0.758405,0.783185,0.760873,0.717274,0.67271,0.652016,0.616515,0.597256,0.587893,0.58704,0.618498,0.69911,0.714328,0.714193,0.71057,0.680051,0.637317,0.602665,0.57256,0.579703,0.585494,0.605651,0.627771,0.671959,0.750108,0.782049,0.746755,0.696357,0.623215,0.599185,0.577684,0.55117,0.539937,0.546123,0.576897,0.641539,0.662569,0.671481,0.670737,0.646631,0.595517,0.559158,0.542135,0.547109,0.560217,0.583693,0.617175,0.672431,0.753616,0.803986,0.763105,0.683305,0.628006,0.587083,0.553018,0.535669,0.52437,0.524046,0.55943,0.625918,0.652068,0.637067,0.627693,0.590944,0.546942,0.499942,0.477628,0.476322,0.479658,0.494659,0.51596,0.550593,0.611451,0.673346,0.660631,0.647894,0.649332,0.6165,0.601857,0.608681,0.590972,0.599228,0.630343,0.708531,0.725288,0.715134,0.716041,0.696578,0.671052,0.640791,0.62973,0.633649,0.643899,0.654525,0.667138,0.700092,0.729441,0.771097,0.776033,0.748483,0.682673,0.649051,0.620556,0.593924,0.566621,0.574948,0.591523,0.653766,0.671265,0.679354,0.674609,0.660684,0.64308,0.618013,0.602481,0.600041,0.608981,0.623425,0.642088,0.660804,0.704489,0.735287,0.755659,0.738572,0.708001,0.671196,0.646112,0.615113,0.593611,0.582947,0.616258,0.671584,0.709384,0.722745,0.721907,0.708464,0.687812,0.654874,0.646884,0.654523,0.668379,0.680992,0.709543,0.753481,0.842662,0.893397,0.836404,0.746423,0.712827,0.652602,0.610229,0.582913,0.555138,0.553528,0.581961,0.64045,0.658768,0.653251,0.630277,0.606916,0.553022,0.505658,0.478067,0.467187,0.487209,0.494715,0.506934,0.553294,0.627625,0.670161,0.657936,0.624137,0.600139,0.567697,0.578743,0.588541,0.569717,0.563193,0.592803,0.677128,0.701689,0.6955,0.695841,0.671074,0.631076,0.59669,0.591611,0.584564,0.600838,0.626684,0.642373,0.696956,0.776745,0.819032,0.770049,0.688378,0.623766,0.581869,0.545362,0.50965,0.492942,0.486028,0.497354,0.553386,0.583309,0.597974,0.594147,0.568057,0.53035,0.488193,0.467536,0.474496,0.480953,0.49767,0.519786,0.565223,0.650464,0.700701,0.678425,0.615932,0.559767,0.527202,0.485477,0.468351,0.449643,0.441295,0.455665,0.50915,0.53757,0.54024,0.538394,0.516125,0.477154,0.434976,0.410574,0.41573,0.417111,0.43557,0.454544,0.50203,0.574264,0.650286,0.640042,0.573936,0.514828,0.489291,0.463375,0.447083,0.429267,0.428356,0.423686,0.460701,0.484825,0.481058,0.466104,0.4451,0.416714,0.392955,0.378488,0.374335,0.38186,0.388026,0.405126,0.426088,0.462254,0.503255,0.525511,0.526598,0.496593,0.466775,0.434187,0.413946,0.405285,0.408915,0.4213,0.464269,0.478059,0.467792,0.454716,0.420367,0.391911,0.363,0.344019,0.327213,0.320665,0.321555,0.322681,0.338743,0.357359,0.400034,0.445355,0.472678,0.470167,0.45869,0.462151,0.457985,0.452323,0.448927,0.466662,0.504661,0.5059,0.480906,0.467112,0.447328,0.423215,0.38663,0.352595,0.350839,0.353358,0.363242,0.374914,0.409369,0.45472,0.496259,0.5104,0.484484,0.466514,0.446221,0.431803,0.415098,0.40837,0.394897,0.40915,0.469056,0.501522,0.493647,0.480353,0.455708,0.42338,0.38478,0.359374,0.376399,0.381969,0.388635,0.404796,0.44457,0.517808,0.564805,0.548395,0.494421,0.462142,0.440971,0.422288,0.411239,0.406277,0.407665,0.407506,0.457426,0.481069,0.4765,0.471618,0.443449,0.399185,0.358898,0.33715,0.328,0.327788,0.328255,0.342774,0.380522,0.452106,0.512737,0.525695,0.511359,0.503175,0.485642,0.462704,0.460281,0.453335,0.476142,0.492934,0.546991,0.566319,0.565928,0.554529,0.531192,0.48719,0.439031,0.412008,0.403842,0.409,0.411757,0.430671,0.471207,0.548057,0.602944,0.598184,0.586142,0.562938,0.555685,0.554928,0.556437,0.554523,0.556116,0.572107,0.614392,0.625204,0.619752,0.611123,0.573033,0.518168,0.476792,0.450754,0.443483,0.444052,0.445634,0.456456,0.490725,0.566074,0.610996,0.629134,0.615653,0.614793,0.610803,0.606119,0.599981,0.586334,0.590318,0.582848,0.620397,0.625286,0.609075,0.594246,0.554428,0.523926,0.474671,0.447079,0.437746,0.439687,0.462775,0.475021,0.500647,0.540531,0.585067,0.592946,0.576402,0.543001,0.515947,0.485087,0.452224,0.450859,0.442695,0.464859,0.519075,0.528688,0.536265,0.521928,0.498491,0.475572,0.442321,0.42616,0.416367,0.428401,0.438814,0.437916,0.439466,0.457597,0.477602,0.509974,0.51576,0.498669,0.478543,0.487825,0.476985,0.472845,0.459241,0.472843,0.497024,0.491911,0.45863,0.43005,0.398223,0.357616,0.315276,0.280593,0.268709,0.260637,0.256279,0.256845,0.284353,0.338409,0.390672,0.417177,0.410831,0.415394,0.414834,0.410428,0.395961,0.393073,0.389409,0.393107,0.430676,0.456557,0.454891,0.447902,0.416041,0.37265,0.33602,0.316116,0.317636,0.332852,0.348016,0.371541,0.421298,0.509858,0.570744,0.568334,0.532459,0.500217,0.490805,0.46693,0.465588,0.467832,0.478616,0.493817,0.541623,0.567341,0.574266,0.558519,0.526484,0.496057,0.448451,0.428315,0.427957,0.43491,0.451997,0.472045,0.528467,0.624353,0.671406,0.642746,0.586918,0.545625,0.512103,0.506556,0.499226,0.502275,0.503853,0.509311,0.556143,0.575638,0.564505,0.559662,0.531263,0.495701,0.454716,0.430963,0.432719,0.429329,0.425775,0.435214,0.493534,0.567987,0.603267,0.576376,0.536638,0.496951,0.464263,0.451457,0.435645,0.421605,0.41671,0.435924,0.483985,0.525747,0.522119,0.523959,0.495881,0.465017,0.450181,0.44174,0.457837,0.47995,0.499946,0.532498,0.587464,0.662597,0.709609,0.71233,0.664539,0.637708,0.627936,0.598881,0.584855,0.594792,0.597189,0.629085,0.664496,0.680756,0.681588,0.665431,0.637287,0.610896,0.584381,0.568218,0.56959,0.578025,0.586682,0.614853,0.65997,0.709236,0.755108,0.792172,0.819531,0.851808,0.86932,0.880029,0.867303,0.860549,0.841873,0.850914,0.879879,0.89806,0.87432,0.856673,0.825208,0.803647,0.762016,0.735403,0.743102,0.737575,0.752237,0.76446,0.789947,0.82216,0.848106,0.848057,0.796415,0.742634,0.702693,0.673437,0.629992,0.593187,0.587282,0.604097,0.673623,0.719739,0.718335,0.695976,0.676502,0.642778,0.610782,0.599672,0.602749,0.617773,0.647147,0.646858,0.670686,0.720916,0.754257,0.718631,0.671406,0.638158,0.587507,0.557374,0.526141,0.520552,0.512887,0.528695,0.600463,0.639226,0.647124,0.635637,0.610216,0.576648,0.534022,0.517062,0.510203,0.52502,0.535585,0.551871,0.587799,0.638031,0.673945,0.661527,0.636719,0.626083,0.601595,0.585205,0.575199,0.572699,0.573346,0.608336,0.653309,0.67477,0.675167,0.65547,0.623273,0.588453,0.549094,0.528523,0.519669,0.518423,0.526124,0.543781,0.574086,0.630159,0.667976,0.651362,0.645722,0.615968,0.600182,0.58385,0.556131,0.533658,0.531295,0.537776,0.586688,0.603921,0.605081,0.606839,0.581588,0.557351,0.525307,0.511226,0.514032,0.511483,0.521995,0.542189,0.607202,0.681127,0.720781,0.681063,0.621356,0.585618,0.552807,0.535328,0.527012,0.522192,0.533971,0.559874,0.598306,0.618993,0.622692,0.617842,0.593446,0.547941,0.505319,0.476483,0.475527,0.47537,0.487938,0.494764,0.532644,0.575973,0.612173,0.613147,0.606269,0.630069,0.649302,0.65449,0.661486,0.664325,0.671674,0.680492,0.719769,0.730345,0.716118,0.696074,0.648114,0.611873,0.580837,0.561199,0.571108,0.571385,0.571297,0.580833,0.592252,0.615612,0.641659,0.672856,0.700639,0.724486,0.734708,0.732599,0.724531,0.717137,0.712879,0.714742,0.748481,0.794059,0.760948,0.735028,0.721251,0.692738,0.664423,0.650749,0.661424,0.678421,0.693054,0.702729,0.733866,0.754006,0.773606,0.76261,0.73319,0.702168,0.660215,0.630723,0.60438,0.572472,0.569539,0.592226,0.648485,0.686292,0.674993,0.669267,0.668231,0.672107,0.631282,0.62163,0.626345,0.635375,0.653762,0.678007,0.728765,0.79747,0.847025,0.799807,0.72884,0.671524,0.625882,0.58821,0.566891,0.552203,0.546558,0.576607,0.641882,0.693605,0.711935,0.715704,0.683541,0.640613,0.597802,0.592513,0.605514,0.622466,0.630303,0.656021,0.683837,0.757035,0.764676,0.73417,0.673818,0.636782,0.602221,0.574751,0.559265,0.576646,0.579813,0.611363,0.6795,0.706391,0.701889,0.681219,0.639912,0.596383,0.554578,0.525532,0.521812,0.532922,0.541376,0.549002,0.597089,0.663602,0.71621,0.750621,0.753071,0.729569,0.687027,1,0.949988,0.921598,0.910782,0.878299,0.690871,0.736117,0.740055,0.732389,0.693225,0.652411,0.602626,0.575426,0.569273,0.575394,0.581225,0.5992,0.633418,0.68058,0.717589,0.690712,0.639802,0.603497,0.556667,0.531612,0.517428,0.508915,0.506717,0.523335,0.580818,0.619806,0.634312,0.632082,0.628064,0.587289,0.549662,0.532395,0.535242,0.54454,0.558551,0.581346,0.63998,0.738323,0.762976,0.706408,0.643878,0.60459,0.571861,0.533964,0.515027,0.510492,0.525714,0.551427,0.601777,0.626381,0.620713,0.609641,0.586913,0.563538,0.521208,0.50501,0.495326,0.512874,0.532468,0.559038,0.587162,0.611549,0.636235,0.671831,0.676633,0.67241,0.643739,0.62082,0.602427,0.571207,0.556161,0.558047,0.608846,0.649176,0.655114,0.657736,0.646828,0.619293,0.595858,0.585964,0.585535,0.592736,0.595626,0.610576,0.632048,0.665448,0.696255,0.685447,0.646367,0.60918,0.571781,0.549422,0.532506,0.508844,0.492365,0.509367,0.560271,0.618957,0.615717,0.613588,0.602654,0.570568,0.546639,0.528326,0.52952,0.541963,0.553852,0.568823,0.606743,0.659428,0.695843,0.6754,0.611483,0.591493,0.594756,0.580807,0.580385,0.58073,0.583637,0.601837,0.635231,0.643483,0.62836,0.621257,0.600294,0.57099,0.543994,0.524895,0.531269,0.541335,0.552239,0.577652,0.630313,0.715608,0.752299,0.71138,0.659932,0.625121,0.594177,0.568317,0.561756,0.55591,0.542512,0.558663,0.613481,0.65886,0.667075,0.663879,0.638136,0.601602,0.554741,0.546843,0.543402,0.550175,0.565204,0.578689,0.652477,0.732016,0.753539,0.710934,0.675705,0.649319,0.613282,0.565296,0.537498,0.53994,0.545638,0.560509,0.599498,0.636308,0.632163,0.636462,0.618419,0.572806,0.532884,0.50762,0.509573,0.519694,0.528019,0.53863,0.585826,0.656043,0.686139,0.648344,0.591615,0.562271,0.530397,0.505233,0.490425,0.476948,0.4683,0.469545,0.512465,0.565826,0.570051,0.573059,0.547707,0.517825,0.481916,0.460408,0.452966,0.462856,0.467045,0.499535,0.546436,0.630965,0.680923,0.63676,0.574787,0.540068,0.511024,0.487771,0.476616,0.459683,0.452928,0.45002,0.480237,0.529992,0.538353,0.53327,0.516937,0.4888,0.469942,0.458465,0.45743,0.453416,0.459606,0.474258,0.499164,0.52463,0.561561,0.553245,0.524441,0.495849,0.468593,0.444047,0.425069,0.401799,0.391877,0.406305,0.434262,0.487057,0.489649,0.496655,0.48407,0.465399,0.438434,0.428913,0.436374,0.43557,0.450413,0.464207,0.474798,0.500568,0.529544,0.521637,0.481195,0.451971,0.423288,0.409538,0.394108,0.37975,0.373942,0.378046,0.418772,0.469805,0.468128,0.450593,0.43235,0.399277,0.372894,0.355159,0.35297,0.357098,0.372753,0.398542,0.448419,0.52246,0.583436,0.567864,0.525639,0.493678,0.491988,0.480456,0.488311,0.474534,0.476288,0.498576,0.51218,0.520972,0.540265,0.518967,0.480698,0.436912,0.387655,0.367298,0.370199,0.374714,0.386729,0.407918,0.450513,0.531812,0.577238,0.599044,0.571878,0.555307,0.514152,0.471441,0.454323,0.439292,0.444019,0.435506,0.46994,0.518425,0.520423,0.513949,0.485561,0.442939,0.397217,0.371134,0.371977,0.385683,0.404757,0.422083,0.472326,0.539676,0.57611,0.575195,0.547188,0.538516,0.529852,0.512934,0.524793,0.525832,0.537337,0.547827,0.594539,0.607009,0.603293,0.591947,0.553356,0.512036,0.461445,0.437206,0.429432,0.435602,0.448434,0.469507,0.514905,0.600581,0.636554,0.622417,0.567629,0.537963,0.530971,0.513492,0.498019,0.489827,0.499087,0.520166,0.558189,0.626495,0.643164,0.640748,0.605315,0.570967,0.534987,0.515134,0.504734,0.516178,0.521864,0.540184,0.580644,0.655234,0.676292,0.66541,0.64245,0.581584,0.544753,0.509821,0.499466,0.497136,0.523766,0.541052,0.574822,0.598761,0.603338,0.590513,0.549559,0.520378,0.480323,0.45773,0.455061,0.446335,0.440636,0.455689,0.470827,0.498943,0.537322,0.555226,0.560232,0.551875,0.520597,0.491746,0.465397,0.441815,0.427946,0.430993,0.468971,0.506372,0.51787,0.51439,0.495907,0.469258,0.442767,0.427265,0.427044,0.436848,0.445272,0.462322,0.489023,0.511215,0.540047,0.538617,0.501059,0.496025,0.461017,0.457955,0.455337,0.438113,0.426036,0.457029,0.489072,0.526937,0.517345,0.51356,0.484748,0.463071,0.429503,0.405705,0.401908,0.405182,0.415704,0.438486,0.493712,0.577148,0.605197,0.581997,0.532985,0.504494,0.477521,0.457303,0.441151,0.429737,0.417613,0.410896,0.44736,0.496465,0.510325,0.512581,0.476041,0.442283,0.400941,0.374738,0.373739,0.375282,0.382467,0.402333,0.446273,0.530493,0.570965,0.578269,0.549431,0.527357,0.516577,0.513254,0.513029,0.516401,0.528808,0.552683,0.599648,0.634417,0.637238,0.618224,0.592839,0.54853,0.499331,0.472422,0.464951,0.471694,0.471678,0.483569,0.523877,0.591188,0.636848,0.636614,0.618423,0.600234,0.591161,0.579058,0.571831,0.566576,0.561934,0.559111,0.585567,0.604532,0.60712,0.589184,0.546416,0.504016,0.462434,0.436284,0.433711,0.437433,0.442071,0.461866,0.508962,0.591426,0.624763,0.604241,0.552021,0.526885,0.499308,0.486611,0.463577,0.446693,0.438621,0.439444,0.473975,0.526823,0.548014,0.548908,0.523159,0.495157,0.460972,0.444178,0.439181,0.449302,0.453871,0.476938,0.523255,0.593069,0.629529,0.622962,0.589111,0.567496,0.531242,0.484454,0.475535,0.471374,0.4753,0.451553,0.48809,0.507056,0.523174,0.521322,0.49523,0.467232,0.434906,0.418579,0.415831,0.420798,0.429574,0.447868,0.478599,0.517928,0.541571,0.543589,0.529807,0.489323,0.465309,0.439236,0.421011,0.399438,0.384255,0.391489,0.425131,0.472551,0.486326,0.491131,0.472356,0.457012,0.433941,0.419437,0.413243,0.417602,0.428437,0.440932,0.466852,0.499387,0.519409,0.5093,0.467635,0.441425,0.403342,0.388303,0.378552,0.370737,0.365169,0.371698,0.399035,0.45579,0.459773,0.446408,0.427833,0.392723,0.361036,0.350297,0.35702,0.365916,0.375077,0.395105,0.442064,0.522213,0.553875,0.533325,0.477036,0.449504,0.432146,0.427232,0.410269,0.404393,0.389553,0.376249,0.400322,0.451427,0.473214,0.468167,0.432517,0.389475,0.352456,0.33568,0.338175,0.349662,0.365189,0.387919,0.431608,0.516213,0.545827,0.519696,0.469822,0.439892,0.428892,0.413398,0.403321,0.397382,0.390682,0.380812,0.399479,0.448993,0.45678,0.440377,0.390232,0.352042,0.316234,0.287467,0.283929,0.284589,0.28775,0.297507,0.337127,0.40221,0.443333,0.464981,0.444946,0.43196,0.418629,0.409371,0.400497,0.391598,0.385916,0.378513,0.390504,0.440443,0.44647,0.43378,0.391444,0.336526,0.294865,0.266554,0.253389,0.250829,0.249958,0.25826,0.292138,0.355187,0.401709,0.42908,0.416122,0.408282,0.405266,0.3938,0.390532,0.389119,0.388821,0.379517,0.403267,0.43891,0.439989,0.429529,0.387762,0.332783,0.289733,0.257376,0.24397,0.239028,0.235482,0.238574,0.264055,0.330144,0.382113,0.409828,0.409253,0.416341,0.411798,0.403074,0.404127,0.39953,0.392387,0.394044,0.422368,0.428452,0.418056,0.407671,0.380754,0.335416,0.305461,0.281406,0.264282,0.254988,0.250306,0.253616,0.25898,0.282128,0.313247,0.344918,0.383837,0.381802,0.379373,0.373537,0.360641,0.351043,0.346955,0.348515,0.36723,0.391439,0.395562,0.38406,0.360781,0.331698,0.30063,0.272669,0.258493,0.25475,0.253584,0.260944,0.283689,0.311108,0.340975,0.366837,0.37867,0.381391,0.405671,0.409811,0.416427,0.408288,0.404597,0.407049,0.433801,0.454634,0.441736,0.414343,0.387977,0.344206,0.308541,0.298574,0.291613,0.292627,0.30373,0.340615,0.417945,0.469592,0.497419,0.471711,0.470546,0.46821,0.464959,0.449379,0.441972,0.436331,0.425524,0.440724,0.476254,0.498834,0.49791,0.460545,0.414675,0.361844,0.332399,0.315775,0.31061,0.315151,0.323039,0.364391,0.435894,0.489342,0.508293,0.490384,0.493161,0.472249,0.446654,0.428259,0.414174,0.408516,0.399183,0.399132,0.407834,0.456973,0.464113,0.435577,0.402877,0.359848,0.331512,0.323633,0.325035,0.338302,0.354701,0.406608,0.49071,0.541419,0.526804,0.471687,0.442555,0.421935,0.408203,0.400354,0.392537,0.393654,0.378573,0.376432,0.379903,0.41838,0.434869,0.398877,0.353281,0.30507,0.27552,0.269736,0.270872,0.280659,0.287415,0.329814,0.410162,0.453644,0.475308,0.434805,0.427376,0.405979,0.400692,0.397474,0.394653,0.393184,0.382109,0.379913,0.384919,0.417492,0.434016,0.392976,0.348957,0.299537,0.267729,0.25705,0.259102,0.265748,0.276009,0.320303,0.399807,0.452321,0.457475,0.430624,0.414512,0.40345,0.396737,0.395682,0.392087,0.388708,0.383682,0.381363,0.378383,0.400304,0.394998,0.368743,0.337403,0.296409,0.269899,0.255785,0.248209,0.248713,0.253161,0.275032,0.306621,0.346759,0.362468,0.375285,0.37078,0.36825,0.362599,0.36589,0.355438,0.357441,0.370364,0.368203,0.370008,0.381191,0.387205,0.36672,0.326167,0.287136,0.261192,0.244577,0.23328,0.229859,0.229522,0.236906,0.249418,0.275006,0.309703,0.330339,0.339704,0.343008,0.350694,0.349326,0.352437,0.348389,0.350245,0.366224,0.381367,0.396696,0.403233,0.368366,0.326555,0.289493,0.256405,0.24171,0.232925,0.230787,0.231432,0.260324,0.330369,0.375038,0.401689,0.413593,0.415526,0.419969,0.409,0.402907,0.396561,0.3958,0.374807,0.385245,0.390935,0.417057,0.423189,0.389874,0.342802,0.290541,0.257852,0.251225,0.248475,0.25127,0.262164,0.299771,0.379858,0.438203,0.469826,0.440977,0.427792,0.421169,0.409774,0.405819,0.406383,0.410055,0.397646,0.414785,0.419774,0.444202,0.447861,0.412203,0.363549,0.322987,0.294619,0.283736,0.286084,0.291296,0.303876,0.345291,0.427593,0.471831,0.462477,0.426726,0.414062,0.403417,0.396866,0.392155,0.39375,0.387925,0.374384,0.376505,0.384025,0.409255,0.425211,0.399528,0.348121,0.294282,0.264333,0.252377,0.251862,0.253142,0.264724,0.296338,0.371209,0.412088,0.4288,0.413507,0.400189,0.399633,0.397299,0.393948,0.389964,0.38215,0.377345,0.383112,0.394342,0.42839,0.433064,0.395663,0.339618,0.289017,0.259539,0.238771,0.236254,0.234736,0.238486,0.264546,0.329595,0.381086,0.402736,0.413593,0.42514,0.416869,0.422003,0.432922,0.442917,0.442174,0.445211,0.461334,0.464874,0.473799,0.475128,0.449707,0.428677,0.406059,0.380957,0.37673,0.381538,0.394651,0.410396,0.443947,0.485859,0.514184,0.518067,0.504905,0.476108,0.454533,0.422809,0.398358,0.373589,0.365305,0.373683,0.37775,0.394413,0.429194,0.444699,0.426287,0.406363,0.378323,0.36872,0.363437,0.366945,0.374378,0.385166,0.401211,0.427558,0.460018,0.460566,0.446404,0.440677,0.423487,0.393034,0.37259,0.362929,0.363233,0.366111,0.38436,0.403947,0.408269,0.393652,0.373602,0.331482,0.297204,0.273589,0.262749,0.259087,0.256064,0.26127,0.296006,0.367073,0.416596,0.441507,0.430924,0.434781,0.432813,0.428836,0.428969,0.420187,0.41879,0.403923,0.395927,0.40253,0.419019,0.43565,0.404873,0.362039,0.316819,0.289493,0.274281,0.27224,0.269938,0.279654,0.31439,0.39344,0.430665,0.442695,0.415344,0.411417,0.405298,0.399908,0.398611,0.397625,0.391364,0.378916,0.382147,0.386195,0.435416,0.437498,0.402592,0.351275,0.307163,0.274987,0.259951,0.258665,0.260729,0.266012,0.306132,0.375437,0.416384,0.432813,0.413337,0.412503,0.408361,0.402067,0.396499,0.403295,0.401216,0.388084,0.391924,0.39068,0.414798,0.433362,0.401904,0.344774,0.295776,0.258418,0.247032,0.241179,0.242645,0.251311,0.288843,0.360153,0.401567,0.420425,0.400017,0.403351,0.403437,0.40774,0.411161,0.416298,0.423738,0.418294,0.420966,0.415604,0.433456,0.445383,0.409099,0.353043,0.294814,0.2591,0.237167,0.231758,0.22764,0.23006,0.255487,0.317042,0.356283,0.37959,0.386133,0.400159,0.404073,0.417435,0.429098,0.436035,0.445531,0.447257,0.445392,0.426861,0.432114,0.428639,0.394983,0.347546,0.303274,0.269104,0.250316,0.241382,0.23726,0.232781,0.237118,0.253877,0.276267,0.31612,0.344862,0.358508,0.359205,0.364318,0.370311,0.382949,0.395785,0.403203,0.399891,0.396872,0.408293,0.421864,0.393135,0.360316,0.314795,0.280546,0.256126,0.242204,0.233398,0.226947,0.231947,0.244118,0.264022,0.300244,0.321135,0.328244,0.336719,0.347647,0.361761,0.372988,0.37828,0.381281,0.376316,0.376082,0.384064,0.394231,0.367815,0.33363,0.286547,0.25731,0.239665,0.229672,0.223793,0.224368,0.243471,0.285029,0.316974,0.333491,0.360303,0.387572,0.410042,0.429344,0.449866,0.470649,0.483136,0.486416,0.504082,0.495982,0.505148,0.499172,0.470081,0.406674,0.353637,0.308857,0.282368,0.267249,0.25913,0.252572,0.270092,0.308321,0.337986,0.361308,0.400879,0.429689,0.462708,0.495294,0.525013,0.549502,0.573276,0.592899,0.602654,0.593157,0.590438,0.582366,0.537382,0.453153,0.393446,0.338083,0.304423,0.288942,0.273561,0.264749,0.279671,0.322717,0.350687,0.383414,0.416266,0.458067,0.487162,0.531475,0.561799,0.585196,0.598302,0.607208,0.595118,0.570857,0.565058,0.57024,0.532991,0.460453,0.385235,0.332682,0.304957,0.285308,0.271717,0.266145,0.282949,0.319819,0.361626,0.383159,0.412287,0.44489,0.47536,0.494636,0.510115,0.524398,0.531512,0.526075,0.506455,0.496137,0.503696,0.485213,0.4386,0.367339,0.316011,0.275282,0.253787,0.243121,0.2372,0.236805,0.253129,0.289936,0.316959,0.334816,0.345027,0.349909,0.352306,0.361,0.35985,0.351952,0.357552,0.366756,0.367843,0.358894,0.362719,0.372573,0.356101,0.318845,0.286268,0.261315,0.246974,0.241972,0.23819,0.239509,0.254351,0.277392,0.303653,0.333752,0.355777,0.357132,0.355987,0.346955,0.343608,0.341425,0.340945,0.346787,0.352585,0.364025,0.369359,0.378951,0.356439,0.318386,0.285361,0.259419,0.243155,0.237566,0.237703,0.236018,0.245188,0.265129,0.287614,0.315985,0.334642,0.338795,0.340868,0.349613,0.355745,0.359994,0.368677,0.377291,0.389928,0.399766,0.395223,0.400086,0.369076,0.32249,0.282529,0.254525,0.238087,0.22931,0.223322,0.226098,0.252314,0.312979,0.350329,0.377272,0.387106,0.402144,0.411369,0.419643,0.428,0.438396,0.436801,0.433992,0.442394,0.441132,0.447027,0.452342,0.412244,0.355552,0.293118,0.255777,0.239065,0.230212,0.227522,0.232262,0.26327,0.319115,0.362725,0.387048,0.379309,0.397031,0.40128,0.405679,0.417415,0.418882,0.400892,0.385749,0.386502,0.397884,0.417182,0.417265,0.386013,0.338784,0.28957,0.25841,0.248288,0.23968,0.238687,0.243561,0.272019,0.330933,0.376644,0.398864,0.393311,0.40759,0.404149,0.40322,0.397196,0.395054,0.396021,0.386564,0.384244,0.389064,0.414129,0.426216,0.40756,0.364303,0.311586,0.281309,0.26949,0.269762,0.272015,0.28108,0.313222,0.387104,0.426019,0.435208,0.411174,0.40503,0.402987,0.397037,0.405175,0.406726,0.412287,0.409616,0.41215,0.402914,0.416941,0.43575,0.399708,0.349508,0.290809,0.255104,0.23888,0.233789,0.230298,0.230523,0.260927,0.318179,0.355359,0.38064,0.387878,0.421071,0.442965,0.456952,0.477572,0.481547,0.485886,0.484323,0.486585,0.471391,0.473115,0.47545,0.44218,0.39672,0.343962,0.294833,0.273029,0.25764,0.250434,0.246466,0.254192,0.272978,0.292985,0.321757,0.34111,0.362267,0.367311,0.378486,0.386249,0.385773,0.393047,0.398227,0.399018,0.386701,0.384859,0.387205,0.368913,0.336516,0.292398,0.257123,0.242384,0.23614,0.236314,0.238317,0.247799,0.265789,0.287383,0.32362,0.333801,0.346386,0.344924,0.342572,0.353389,0.34302,0.337633,0.349677,0.352233,0.36205,0.374691,0.389986,0.366649,0.332236,0.293043,0.266368,0.258332,0.256212,0.256379,0.262567,0.295324,0.370639,0.410503,0.435214,0.417741,0.40441,0.406217,0.410392,0.403986,0.397052,0.400742,0.384118,0.38392,0.390121,0.404442,0.421587,0.394769,0.344461,0.29586,0.26628,0.25564,0.255076,0.258242,0.262101,0.29479,0.360581,0.399899,0.418397,0.399267,0.403752,0.399194,0.395626,0.401659,0.405433,0.409191,0.405939,0.404236,0.395605,0.412791,0.426017,0.399608,0.343284,0.288646,0.25832,0.243745,0.237062,0.234683,0.23869,0.267024,0.307026,0.347994,0.382692,0.382598,0.395228,0.404335,0.403192,0.398967,0.404078,0.394368,0.395129,0.392029,0.392708,0.408029,0.426053,0.390292,0.345756,0.301342,0.273241,0.259803,0.254488,0.251819,0.253468,0.278816,0.342877,0.382846,0.406142,0.395035,0.398113,0.404016,0.405673,0.406029,0.409549,0.410853,0.40548,0.406955,0.403312,0.40494,0.420511,0.388864,0.337255,0.288712,0.253972,0.241689,0.23548,0.23357,0.23834,0.266169,0.314075,0.365536,0.386234,0.388579,0.392693,0.394979,0.402427,0.410578,0.414502,0.421294,0.412208,0.406436,0.397243,0.413305,0.418957,0.384255,0.341839,0.291632,0.264966,0.234108,0.222237,0.232584,0.229891,0.235948,0.257895,0.279581,0.30882,0.34298,0.35809,0.358658,0.355299,0.350574,0.351275,0.345563,0.344845,0.349574,0.352488,0.374005,0.36798,0.355342,0.329166,0.288579,0.260249,0.24763,0.239022,0.232556,0.232116,0.23458,0.243269,0.263669,0.306239,0.324012,0.337944,0.349143,0.364147,0.368701,0.376269,0.382439,0.394722,0.413929,0.429318,0.423914,0.423444,0.397211,0.353807,0.308629,0.277242,0.256607,0.24417,0.234824,0.229717,0.252383,0.317503,0.360095,0.390912,0.40781,0.433386,0.442259,0.456249,0.458648,0.443584,0.43333,0.427766,0.438497,0.436932,0.437142,0.441629,0.405692,0.355275,0.298504,0.259226,0.24171,0.235718,0.232468,0.235622,0.260774,0.320642,0.365774,0.389546,0.386403,0.398416,0.405754,0.412499,0.402545,0.38585,0.379673,0.382829,0.390449,0.399438,0.403443,0.419789,0.391868,0.338409,0.293489,0.262172,0.252218,0.248164,0.250906,0.258356,0.294456,0.367466,0.407358,0.424728,0.408164,0.414051,0.402922,0.404635,0.402894,0.399938,0.389317,0.37989,0.384935,0.386225,0.404082,0.42768,0.403417,0.361081,0.31108,0.28156,0.267963,0.269723,0.271488,0.280632,0.319366,0.384675,0.425239,0.435825,0.409423,0.409648,0.404221,0.400116,0.402204,0.404601,0.40057,0.407311,0.405302,0.397588,0.406033,0.427876,0.401117,0.346022,0.292295,0.258543,0.245411,0.242244,0.240171,0.244326,0.272678,0.329353,0.363165,0.388305,0.392869,0.408878,0.421489,0.435512,0.454576,0.470724,0.480471,0.481526,0.488268,0.476948,0.468409,0.470163,0.434901,0.392539,0.34772,0.311697,0.283331,0.263049,0.25445,0.24837,0.252437,0.272238,0.30644,0.355022,0.388909,0.427713,0.464055,0.494872,0.522518,0.543492,0.56536,0.583029,0.571449,0.570302,0.551864,0.539253,0.515121,0.469284,0.407229,0.367086,0.338662,0.31796,0.304337,0.295395,0.297136,0.310705,0.33601,0.389149,0.444009,0.496257,0.522769,0.554214,0.575259,0.580083,0.593388,0.61382,0.621223,0.634155,0.622505,0.619366,0.577306,0.513946,0.446076,0.401831,0.373698,0.353196,0.331874,0.322357,0.347407,0.41287,0.457456,0.483749,0.504264,0.535997,0.54334,0.545323,0.531134,0.54114,0.560245,0.546322,0.551965,0.548462,0.545589,0.549523,0.515842,0.444667,0.37459,0.328487,0.299642,0.283176,0.276297,0.272414,0.307587,0.375574,0.414641,0.448867,0.472262,0.498326,0.524615,0.537476,0.544354,0.575353,0.599498,0.607572,0.603465,0.588644,0.555097,0.550475,0.506919,0.442174,0.363611,0.307675,0.27566,0.260682,0.249969,0.247139,0.26863,0.315737,0.360335,0.404734,0.428956,0.467764,0.491531,0.525112,0.554887,0.587565,0.610874,0.616491,0.619964,0.600898,0.578736,0.576277,0.531698,0.461229,0.379133,0.324441,0.298356,0.27968,0.270767,0.266025,0.290983,0.346367,0.39592,0.441247,0.473908,0.518507,0.559154,0.600096,0.634704,0.65439,0.67209,0.676865,0.677083,0.647919,0.617439,0.611251,0.556544,0.480059,0.389109,0.32711,0.292136,0.269758,0.256283,0.249264,0.266589,0.3132,0.355177,0.393214,0.415994,0.446545,0.469762,0.492614,0.510998,0.535993,0.55407,0.557711,0.562339,0.53229,0.508908,0.508076,0.475055,0.422338,0.367202,0.327211,0.300341,0.284064,0.276333,0.27203,0.279961,0.294338,0.326572,0.385976,0.450078,0.498915,0.538269,0.546586,0.531782,0.518039,0.513899,0.513262,0.502641,0.472967,0.440551,0.432444,0.404172,0.356707,0.30233,0.270465,0.245531,0.23646,0.228534,0.22175,0.223896,0.227196,0.253541,0.291006,0.31412,0.328965,0.338387,0.340501,0.33974,0.33789,0.344393,0.349079,0.357947,0.362481,0.360041,0.367982,0.34885,0.309693,0.277071,0.245831,0.233289,0.228212,0.227839,0.232856,0.25955,0.315226,0.365804,0.390397,0.391017,0.397507,0.404127,0.403267,0.401548,0.400165,0.394036,0.399235,0.401867,0.398154,0.419823,0.431872,0.399117,0.347077,0.290213,0.257679,0.247347,0.242369,0.240375,0.244362,0.273248,0.325052,0.362123,0.395746,0.393823,0.405021,0.407217,0.406689,0.402819,0.404496,0.399003,0.410921,0.418406,0.433261,0.441194,0.432376,0.409536,0.360787,0.302187,0.267256,0.255192,0.247433,0.245477,0.246489,0.273121,0.332582,0.37379,0.387539,0.398452,0.431683,0.450203,0.467852,0.484255,0.506646,0.501409,0.482889,0.481084,0.468465,0.456759,0.460296,0.436992,0.380859,0.323086,0.285286,0.265907,0.250631,0.246918,0.245422,0.270362,0.319323,0.356898,0.393422,0.386978,0.401576,0.410355,0.413653,0.411732,0.40703,0.407911,0.397635,0.396568,0.409403,0.41364,0.426604,0.405937,0.356311,0.30343,0.272926,0.253723,0.249426,0.246732,0.245531,0.285091,0.334906,0.372176,0.386527,0.402545,0.424089,0.449154,0.483667,0.521703,0.551191,0.578826,0.584137,0.5784,0.56434,0.563544,0.561589,0.542414,0.452274,0.383682,0.334421,0.30488,0.288491,0.273825,0.268718,0.27155,0.281116,0.313681,0.361773,0.419911,0.459715,0.493937,0.524081,0.553879,0.563392,0.576275,0.586392,0.59363,0.580179,0.555348,0.540373,0.496705,0.439556,0.376511,0.325073,0.295712,0.276884,0.265116,0.253764,0.25386,0.257826,0.285807,0.321937,0.362149,0.401424,0.437264,0.460431,0.488562,0.491244,0.496227,0.493388,0.504116,0.500982,0.483485,0.46949,0.433608,0.378959,0.321124,0.278271,0.258873,0.246616,0.243796,0.240257,0.26482,0.321873,0.36003,0.389059,0.392451,0.407304,0.40923,0.411348,0.406355,0.39863,0.394301,0.392284,0.402253,0.412958,0.41725,0.408968,0.375917,0.32964,0.282844,0.252919,0.239429,0.235725,0.234929,0.234921,0.2625,0.318348,0.356315,0.389417,0.383796,0.404968,0.41111,0.406666,0.403996,0.399732,0.404247,0.396696,0.402723,0.4098,0.4235,0.424456,0.397307,0.351185,0.297745,0.268184,0.251708,0.243376,0.244864,0.245336,0.274549,0.325159,0.369543,0.39795,0.393167,0.401831,0.410