

!!!master.dss
clear
new object=circuit.ckt5


! redirect vsource.dss
! makebuslist
! redirect busvoltagebases.dss ! set voltage bases
! buscoords buscoords.dss
! giscoords giscoords.dss


!!!loadshape.dss
new object=loadshape.default npts=24 interval=1 mult=[0.677,0.6256,0.6087,0.5833,0.58028,0.6025,0.657,0.7477,0.832,0.88,0.94,0.989,0.985,0.98,0.9898,0.999,1,0.958,0.936,0.913,0.876,0.876,0.828,0.756]
new object=loadshape.residential npts=8760 interval=1 mult=[0.461402,0.406596,0.348176,0.317331,0.297966,0.28285,0.272295,0.283828,0.341328,0.414316,0.479789,0.562966,0.66915,0.703979,0.732955,0.797333,0.769829,0.674118,0.610082,0.573815,0.544508,0.523452,0.490362,0.428271,0.364141,0.311291,0.277558,0.25814,0.253313,0.25326,0.286763,0.315469,0.302003,0.329289,0.353486,0.407727,0.499632,0.577457,0.63372,0.677271,0.720847,0.731836,0.762074,0.747741,0.692251,0.660239,0.598773,0.525279,0.429261,0.371024,0.319406,0.280964,0.258888,0.262047,0.284129,0.317343,0.299316,0.303677,0.341022,0.359032,0.382728,0.420038,0.456558,0.502796,0.550967,0.599999,0.635393,0.629176,0.580221,0.553666,0.525043,0.455468,0.386889,0.320885,0.278678,0.254492,0.234632,0.226806,0.22845,0.232186,0.274818,0.357099,0.444837,0.543418,0.610842,0.662514,0.715087,0.753087,0.76347,0.788505,0.767802,0.745549,0.687159,0.6359,0.570774,0.512385,0.426915,0.355955,0.305904,0.272631,0.250143,0.243873,0.256337,0.278248,0.270563,0.286751,0.356775,0.453317,0.545758,0.642501,0.697484,0.754513,0.787503,0.827447,0.843194,0.819344,0.775522,0.759322,0.698191,0.626271,0.517058,0.440146,0.38581,0.355596,0.333255,0.316371,0.325334,0.339413,0.35252,0.410332,0.483962,0.578218,0.656703,0.726933,0.73813,0.74308,0.727616,0.727622,0.729137,0.68261,0.645382,0.616571,0.588006,0.532728,0.456847,0.389629,0.342083,0.309152,0.29159,0.279426,0.277311,0.284265,0.328004,0.382145,0.423179,0.458197,0.48603,0.505006,0.510994,0.558051,0.611396,0.680335,0.685179,0.683729,0.644327,0.607171,0.570981,0.497545,0.419785,0.355048,0.314897,0.27536,0.25385,0.244096,0.238327,0.259979,0.308657,0.376682,0.431188,0.515431,0.62597,0.72177,0.776194,0.815224,0.85686,0.863248,0.896504,0.878647,0.855263,0.800273,0.727522,0.61353,0.51011,0.433298,0.388327,0.353745,0.340545,0.334115,0.358525,0.364241,0.373258,0.380978,0.407108,0.471562,0.570014,0.681148,0.724752,0.738713,0.762262,0.751336,0.75512,0.730816,0.696989,0.661265,0.619659,0.528532,0.433934,0.36555,0.330603,0.299605,0.281171,0.284771,0.306665,0.326507,0.328157,0.344994,0.365084,0.4216,0.457383,0.499826,0.527713,0.576358,0.632612,0.718134,0.767207,0.752692,0.723143,0.684985,0.651335,0.561269,0.471103,0.405741,0.368826,0.341299,0.322187,0.330379,0.353003,0.384284,0.367353,0.362685,0.365184,0.385681,0.432178,0.487839,0.57391,0.599392,0.653539,0.644328,0.661872,0.673151,0.661318,0.619222,0.576279,0.484887,0.396754,0.326218,0.277234,0.24844,0.230141,0.233088,0.256295,0.272814,0.268265,0.294248,0.336172,0.392558,0.445296,0.501948,0.567498,0.621639,0.66074,0.705947,0.748478,0.720155,0.671855,0.625216,0.578276,0.486219,0.382811,0.332076,0.293346,0.266161,0.243342,0.249123,0.273839,0.292757,0.272849,0.285673,0.299345,0.320089,0.363782,0.366463,0.37294,0.404592,0.463447,0.528461,0.559465,0.544903,0.520665,0.488452,0.463324,0.405346,0.343821,0.284547,0.250379,0.228432,0.21829,0.210222,0.215025,0.227389,0.265271,0.304013,0.35041,0.436952,0.522704,0.601119,0.653073,0.721352,0.757029,0.786925,0.786519,0.755909,0.715329,0.684631,0.635847,0.563708,0.487144,0.425808,0.378179,0.349561,0.318257,0.298426,0.291413,0.300995,0.340138,0.392493,0.445461,0.517954,0.574104,0.626023,0.70039,0.765751,0.692952,0.619647,0.593581,0.573238,0.552788,0.529775,0.511872,0.430711,0.361147,0.305952,0.266638,0.249554,0.235663,0.248658,0.273327,0.298538,0.283177,0.294354,0.344358,0.431642,0.527819,0.608143,0.666156,0.719861,0.757836,0.800185,0.813521,0.771273,0.714651,0.664005,0.606847,0.519168,0.433427,0.374943,0.324055,0.29403,0.276603,0.273869,0.292592,0.323166,0.316819,0.330361,0.356527,0.419903,0.480001,0.529775,0.555829,0.564952,0.575206,0.619264,0.664706,0.677536,0.664211,0.648093,0.608155,0.539393,0.436716,0.372999,0.337197,0.298261,0.296063,0.301567,0.314774,0.344464,0.331917,0.346998,0.408022,0.488193,0.538103,0.546777,0.47204,0.454767,0.475658,0.530907,0.563255,0.558434,0.550431,0.546135,0.517023,0.45426,0.375456,0.318092,0.283534,0.263638,0.248015,0.250597,0.280941,0.302298,0.29631,0.326849,0.396112,0.487521,0.574947,0.631074,0.703861,0.664223,0.613347,0.626094,0.645388,0.682256,0.661323,0.638705,0.606593,0.513475,0.434023,0.373281,0.342307,0.310595,0.292273,0.289722,0.315675,0.340769,0.313507,0.319907,0.344947,0.38848,0.426432,0.47435,0.518402,0.577334,0.63781,0.651977,0.663822,0.644375,0.616529,0.600417,0.565364,0.490379,0.409318,0.343061,0.291389,0.258653,0.240266,0.216009,0.217707,0.229982,0.265607,0.313342,0.381172,0.444071,0.520759,0.567946,0.62231,0.655312,0.695092,0.723344,0.732896,0.698427,0.634828,0.579284,0.532262,0.447878,0.374831,0.31221,0.267876,0.235604,0.218131,0.214713,0.214147,0.234066,0.277717,0.318752,0.356851,0.386146,0.460548,0.563644,0.646667,0.705257,0.74542,0.7442,0.744836,0.700773,0.673163,0.638405,0.574163,0.488499,0.390572,0.324209,0.280051,0.253066,0.236742,0.241792,0.265365,0.282768,0.277417,0.286981,0.329412,0.400372,0.46891,0.508177,0.535616,0.57078,0.584688,0.620955,0.645866,0.635718,0.587776,0.562648,0.507747,0.433262,0.346874,0.29733,0.261705,0.238032,0.229906,0.233112,0.267345,0.278542,0.266302,0.275201,0.298732,0.337793,0.372409,0.443717,0.534166,0.602969,0.637379,0.697042,0.729926,0.721917,0.682922,0.655307,0.590912,0.507446,0.424393,0.364176,0.315115,0.291566,0.27391,0.275519,0.297966,0.308067,0.305716,0.304266,0.31125,0.353427,0.412648,0.492248,0.578689,0.656432,0.677506,0.584812,0.550802,0.512438,0.483219,0.466058,0.439845,0.391091,0.311603,0.257892,0.23432,0.224861,0.215986,0.225085,0.257781,0.278383,0.273533,0.281607,0.298131,0.337946,0.390018,0.470449,0.560803,0.612746,0.616712,0.701185,0.74239,0.729549,0.691721,0.68403,0.634828,0.546029,0.449062,0.37657,0.330385,0.302498,0.280463,0.280204,0.302492,0.327415,0.320661,0.333874,0.383341,0.471333,0.562282,0.651046,0.695039,0.696901,0.731529,0.767366,0.771373,0.741341,0.704762,0.68103,0.625681,0.555511,0.492819,0.43277,0.38419,0.355838,0.335011,0.325935,0.327303,0.336178,0.337227,0.38066,0.445962,0.501506,0.576485,0.639377,0.678726,0.680718,0.734034,0.711722,0.725996,0.741648,0.698651,0.671796,0.614154,0.539776,0.468975,0.41012,0.371832,0.337386,0.309034,0.293346,0.292509,0.302628,0.354912,0.411004,0.463819,0.54914,0.635688,0.70181,0.752562,0.788281,0.823876,0.823281,0.824954,0.819474,0.79834,0.763482,0.684042,0.595956,0.507422,0.436616,0.390425,0.347923,0.334033,0.332707,0.341753,0.357511,0.341146,0.344735,0.383818,0.446239,0.505236,0.57309,0.680429,0.750871,0.801782,0.843341,0.862824,0.859936,0.817764,0.759109,0.700832,0.604755,0.515838,0.425808,0.38274,0.343338,0.324686,0.324822,0.341222,0.356533,0.351801,0.377413,0.451419,0.534125,0.601172,0.671725,0.718989,0.771774,0.804617,0.818967,0.851256,0.828449,0.798399,0.774827,0.710208,0.607389,0.514742,0.437718,0.386954,0.347145,0.320938,0.322883,0.338506,0.350598,0.348542,0.375621,0.44047,0.52974,0.616812,0.688833,0.765562,0.80365,0.781486,0.787138,0.813109,0.78844,0.752609,0.728282,0.677324,0.58127,0.487904,0.399064,0.352602,0.320708,0.302539,0.300088,0.317349,0.323077,0.323543,0.336089,0.408028,0.509815,0.610406,0.687371,0.755862,0.789171,0.829952,0.864657,0.872088,0.840624,0.81051,0.794445,0.731794,0.618486,0.509344,0.438431,0.381626,0.341228,0.319789,0.307896,0.326802,0.333785,0.330815,0.356545,0.423044,0.500097,0.606717,0.68482,0.766747,0.810769,0.823817,0.850077,0.846358,0.764867,0.718994,0.682521,0.618515,0.549871,0.464891,0.396518,0.348577,0.313412,0.289315,0.274735,0.267151,0.28285,0.314833,0.375155,0.459251,0.568647,0.679274,0.762215,0.835621,0.86445,0.88045,0.890351,0.891158,0.866266,0.84482,0.796455,0.75446,0.674901,0.572065,0.506073,0.45571,0.405623,0.376458,0.355661,0.337739,0.346974,0.384125,0.438832,0.520995,0.622752,0.735148,0.846022,0.878388,0.906575,0.910164,0.891418,0.912657,0.897953,0.873449,0.849458,0.793302,0.698068,0.600134,0.527389,0.474267,0.43638,0.400402,0.399241,0.419891,0.437405,0.420268,0.446334,0.521649,0.646078,0.755762,0.802024,0.833081,0.856671,0.872583,0.909209,0.929117,0.925268,0.903923,0.882425,0.809461,0.715853,0.622635,0.540053,0.483655,0.441047,0.40748,0.399606,0.410249,0.418942,0.386576,0.427929,0.514872,0.640744,0.747294,0.806726,0.846246,0.879838,0.910158,0.94207,0.958671,0.960728,0.93765,0.911684,0.845433,0.741459,0.656921,0.580486,0.514459,0.473201,0.441701,0.426986,0.450176,0.465769,0.435078,0.475175,0.562306,0.668118,0.754707,0.820935,0.877457,0.912262,0.936571,0.965283,0.978537,0.957828,0.92066,0.904837,0.840901,0.756752,0.648205,0.56662,0.508542,0.457489,0.425012,0.411611,0.423055,0.42985,0.418995,0.469529,0.554403,0.67387,0.758591,0.830341,0.878853,0.915533,0.932482,0.959738,0.976186,0.962832,0.939701,0.920006,0.868658,0.76901,0.664241,0.592609,0.53538,0.49276,0.472417,0.451649,0.469146,0.468527,0.441884,0.491782,0.584635,0.699311,0.78963,0.833988,0.869908,0.901695,0.927154,0.939972,0.945046,0.933654,0.894465,0.856088,0.803809,0.725447,0.625905,0.555546,0.497186,0.43922,0.405517,0.379958,0.364406,0.366716,0.404657,0.467107,0.582685,0.689499,0.772487,0.824937,0.871687,0.898142,0.922988,0.941486,0.932888,0.897346,0.866525,0.819562,0.763677,0.678007,0.585837,0.510039,0.441401,0.40214,0.369038,0.34421,0.333826,0.339991,0.383094,0.460236,0.536694,0.631804,0.743752,0.838173,0.883821,0.931226,0.948853,0.962395,0.971495,0.954457,0.939324,0.912062,0.843418,0.721847,0.605356,0.531638,0.468775,0.425289,0.383789,0.376075,0.404728,0.397125,0.367312,0.386076,0.445756,0.558322,0.656851,0.729113,0.805925,0.850596,0.889685,0.931527,0.93798,0.93171,0.900258,0.868157,0.790072,0.687053,0.580663,0.504576,0.456452,0.41375,0.382145,0.372162,0.403891,0.39254,0.366599,0.391674,0.45284,0.557002,0.650439,0.747453,0.822945,0.847531,0.894417,0.937096,0.953933,0.946407,0.913617,0.874669,0.799177,0.685468,0.576208,0.493733,0.437794,0.396795,0.371543,0.37083,0.396571,0.399394,0.366157,0.382616,0.450294,0.533223,0.64289,0.743298,0.828543,0.885118,0.92706,0.967805,0.973964,0.946549,0.9359,0.912928,0.824318,0.722224,0.622022,0.55488,0.492678,0.445703,0.408747,0.412931,0.43143,0.43397,0.386341,0.406059,0.473678,0.571387,0.676964,0.763848,0.834755,0.902662,0.945058,0.974901,0.975832,0.964252,0.949643,0.927726,0.875306,0.775457,0.674141,0.623896,0.585802,0.542935,0.500804,0.484757,0.513469,0.507299,0.477715,0.51153,0.58932,0.694773,0.755951,0.82753,0.860343,0.871882,0.908308,0.952389,0.945671,0.925298,0.890557,0.855852,0.800002,0.712736,0.616005,0.534785,0.477915,0.42028,0.384025,0.357299,0.343727,0.344257,0.370506,0.412972,0.495,0.592143,0.695905,0.788858,0.853277,0.904784,0.941787,0.951711,0.953019,0.934191,0.898955,0.85554,0.780767,0.693512,0.605091,0.530158,0.469565,0.420262,0.38703,0.356421,0.338358,0.354075,0.384803,0.449492,0.535686,0.627019,0.752721,0.851208,0.898254,0.934173,0.944079,0.961476,0.969055,0.941545,0.894529,0.858233,0.78224,0.675673,0.566584,0.4889,0.439356,0.3937,0.375385,0.361801,0.403101,0.407173,0.374442,0.385498,0.463889,0.575118,0.655589,0.724251,0.787232,0.857968,0.907793,0.925463,0.953397,0.936277,0.902927,0.870662,0.792748,0.666781,0.555427,0.485971,0.435885,0.392711,0.366192,0.360959,0.407097,0.412489,0.380854,0.392134,0.467897,0.545151,0.648594,0.742355,0.810156,0.866431,0.920377,0.959508,0.976127,0.972514,0.934208,0.913093,0.837572,0.723167,0.616759,0.544744,0.491328,0.43701,0.412371,0.405134,0.437747,0.436009,0.405246,0.440658,0.524418,0.633513,0.75489,0.811971,0.877321,0.91238,0.952518,0.982957,1,0.987819,0.951293,0.921945,0.848716,0.739043,0.63461,0.563655,0.511017,0.461114,0.429173,0.412518,0.441478,0.441472,0.404557,0.430658,0.509055,0.608296,0.729561,0.819261,0.869318,0.906828,0.94016,0.977529,0.994396,0.981195,0.951906,0.937573,0.873025,0.772346,0.67971,0.605645,0.55415,0.513074,0.474815,0.460118,0.481999,0.472499,0.444171,0.441849,0.493974,0.600818,0.699936,0.788988,0.855169,0.898778,0.939724,0.956767,0.9646,0.917295,0.862571,0.842274,0.77498,0.699246,0.624786,0.5559,0.505619,0.47049,0.442303,0.423727,0.402176,0.393183,0.42315,0.480367,0.568783,0.618032,0.686676,0.777449,0.855428,0.916523,0.906805,0.908549,0.908443,0.799672,0.733604,0.701344,0.662591,0.579325,0.501305,0.448102,0.408022,0.389323,0.378255,0.372327,0.35813,0.364165,0.405128,0.447377,0.461615,0.499867,0.559507,0.686211,0.791775,0.83931,0.887434,0.893858,0.896433,0.873921,0.849034,0.839163,0.759395,0.630484,0.536547,0.467284,0.400207,0.369009,0.340162,0.345678,0.381284,0.391521,0.354105,0.371107,0.437435,0.521737,0.616753,0.714421,0.770371,0.826033,0.852888,0.90423,0.935505,0.922157,0.914213,0.878794,0.80596,0.711386,0.630484,0.574263,0.517853,0.472529,0.434582,0.41123,0.4472,0.451967,0.401575,0.417239,0.477296,0.547708,0.638063,0.704951,0.760005,0.803149,0.825779,0.794227,0.783448,0.767301,0.755774,0.732796,0.65289,0.562282,0.47204,0.411841,0.368973,0.353144,0.342006,0.342165,0.392187,0.408269,0.377336,0.371944,0.41431,0.477921,0.561198,0.616736,0.697443,0.720273,0.517353,0.600989,0.597017,0.600771,0.589409,0.591177,0.535274,0.469329,0.40801,0.348023,0.313294,0.299587,0.292609,0.30106,0.355207,0.368449,0.347116,0.341806,0.373346,0.431954,0.468109,0.47656,0.434311,0.418512,0.450223,0.465864,0.500445,0.530624,0.539599,0.552665,0.503415,0.432408,0.67971,0.605645,0.55415,0.513074,0.474815,0.460118,0.481999,0.472499,0.444171,0.441849,0.493974,0.600818,0.699936,0.788988,0.855169,0.898778,0.939724,0.956767,0.9646,0.917295,0.862571,0.842274,0.77498,0.699246,0.485806,0.41804,0.370517,0.341287,0.325505,0.310914,0.311733,0.320649,0.346986,0.413296,0.487722,0.55765,0.643491,0.719436,0.778958,0.814158,0.850878,0.815784,0.780991,0.735755,0.682303,0.649001,0.596722,0.524796,0.465539,0.415565,0.363829,0.330691,0.301266,0.287783,0.28196,0.290435,0.325818,0.379888,0.436563,0.50889,0.600647,0.678443,0.746362,0.789212,0.817935,0.799395,0.791233,0.758726,0.720385,0.685002,0.604401,0.528756,0.457183,0.379599,0.340645,0.303824,0.27203,0.258576,0.255158,0.264169,0.290205,0.35292,0.443187,0.553289,0.648736,0.72289,0.787385,0.832344,0.859005,0.890145,0.860166,0.819055,0.766429,0.713673,0.626011,0.52697,0.422001,0.364406,0.336378,0.301697,0.285779,0.287482,0.336455,0.35348,0.314326,0.319129,0.37357,0.474291,0.562789,0.648093,0.710031,0.757748,0.796201,0.830069,0.830924,0.800444,0.769988,0.722737,0.617802,0.505083,0.394845,0.332777,0.295332,0.258782,0.24181,0.249901,0.293051,0.305315,0.27704,0.269532,0.305645,0.383359,0.477909,0.578235,0.683771,0.754607,0.806567,0.849912,0.848032,0.831761,0.802454,0.760282,0.64111,0.536405,0.436622,0.365726,0.32415,0.294436,0.27348,0.27836,0.336802,0.340727,0.314732,0.320337,0.334557,0.386199,0.486136,0.529404,0.577269,0.598844,0.583993,0.613017,0.665136,0.646384,0.647339,0.639961,0.574181,0.502773,0.413632,0.363911,0.336113,0.309051,0.2909,0.286486,0.336484,0.344747,0.320013,0.313171,0.362432,0.441006,0.528756,0.600323,0.665466,0.727652,0.778704,0.810457,0.789524,0.75301,0.705358,0.663687,0.594094,0.523888,0.431583,0.365113,0.318292,0.290423,0.258941,0.250243,0.246165,0.260303,0.286027,0.345737,0.416396,0.515402,0.616435,0.705481,0.770908,0.820216,0.838815,0.852458,0.847938,0.806497,0.748832,0.695699,0.611049,0.531449,0.447984,0.376593,0.322323,0.295161,0.259413,0.255152,0.248994,0.257162,0.307342,0.356875,0.410951,0.505596,0.632264,0.740363,0.803969,0.845692,0.859211,0.866159,0.833146,0.817163,0.798724,0.75225,0.655483,0.562465,0.473796,0.405794,0.356197,0.330049,0.30921,0.314909,0.369551,0.382905,0.353934,0.343432,0.358071,0.433805,0.552553,0.641169,0.70719,0.765303,0.79989,0.826763,0.852263,0.82486,0.803196,0.752085,0.673564,0.573079,0.502195,0.446699,0.40471,0.373894,0.361088,0.355808,0.391874,0.402417,0.354011,0.363192,0.426214,0.464573,0.465616,0.422177,0.39234,0.391067,0.420032,0.493102,0.527477,0.545204,0.556265,0.553201,0.486885,0.416225,0.340008,0.289032,0.247456,0.241633,0.231391,0.235292,0.290022,0.297613,0.267634,0.263467,0.286486,0.325423,0.377024,0.425754,0.486649,0.568458,0.631863,0.684307,0.690884,0.645948,0.610082,0.574027,0.488835,0.388981,0.31257,0.263709,0.228674,0.213228,0.204253,0.216198,0.273686,0.280941,0.252276,0.237502,0.244574,0.262902,0.299163,0.360487,0.439657,0.488393,0.548463,0.599374,0.642224,0.619158,0.616329,0.62468,0.549783,0.476424,0.393713,0.335176,0.302587,0.285614,0.278754,0.293028,0.342372,0.364029,0.3357,0.31201,0.326884,0.348636,0.329772,0.332106,0.324391,0.324409,0.35645,0.409902,0.439138,0.446381,0.444141,0.42454,0.397715,0.343998,0.288472,0.249235,0.226116,0.21255,0.210953,0.210199,0.211377,0.223199,0.245104,0.294566,0.326861,0.360446,0.388445,0.426238,0.462852,0.490727,0.514135,0.508807,0.509185,0.456641,0.438177,0.408446,0.362084,0.310413,0.247556,0.212792,0.197475,0.18134,0.174916,0.177055,0.181275,0.20625,0.239064,0.270799,0.2684,0.28496,0.311326,0.350198,0.386724,0.422065,0.464773,0.501571,0.530441,0.504623,0.512738,0.475257,0.416909,0.323248,0.259525,0.218473,0.203964,0.188801,0.181322,0.200563,0.248835,0.272248,0.242458,0.227018,0.247903,0.272602,0.309452,0.360246,0.412795,0.449699,0.525249,0.580027,0.587541,0.574835,0.558923,0.531932,0.457984,0.370512,0.301726,0.249459,0.220518,0.203298,0.19513,0.208779,0.264375,0.272879,0.240667,0.23584,0.248964,0.271435,0.309328,0.357659,0.405299,0.470154,0.52255,0.58493,0.595756,0.577045,0.552995,0.533641,0.451567,0.356839,0.285131,0.244055,0.219763,0.203151,0.1918,0.208578,0.260609,0.274004,0.23627,0.228745,0.242664,0.269095,0.306912,0.362373,0.419125,0.495212,0.553943,0.603824,0.624238,0.586545,0.55798,0.525414,0.444996,0.363051,0.287971,0.242417,0.214047,0.199968,0.198601,0.20823,0.261593,0.281501,0.244167,0.234025,0.248546,0.2777,0.319311,0.38683,0.45383,0.514099,0.577711,0.619564,0.646484,0.596952,0.78326,0.742614,0.666126,0.539317,0.434359,0.372026,0.33029,0.29984,0.301208,0.306058,0.381667,0.417504,0.37769,0.369027,0.367966,0.420451,0.519545,0.62264,0.686016,0.753859,0.813445,0.863961,0.880509,0.846836,0.603423,0.544609,0.497056,0.418883,0.357122,0.313678,0.281389,0.260957,0.252983,0.252141,0.260527,0.271901,0.303329,0.36862,0.435838,0.517476,0.569696,0.630178,0.704238,0.771815,0.776795,0.789701,0.780095,0.739626,0.688798,0.626453,0.562229,0.474921,0.406083,0.343591,0.303117,0.272879,0.249901,0.239571,0.235917,0.252123,0.301985,0.351052,0.409006,0.491222,0.59476,0.685657,0.763364,0.807634,0.848751,0.848427,0.837283,0.815832,0.788463,0.729702,0.623371,0.519574,0.423091,0.366369,0.319235,0.287205,0.269962,0.277075,0.341287,0.350333,0.307018,0.305244,0.359833,0.457955,0.528721,0.61904,0.692169,0.760801,0.782128,0.834112,0.836664,0.799596,0.779736,0.724617,0.644876,0.53505,0.438195,0.371726,0.314821,0.289574,0.271806,0.276185,0.325423,0.349856,0.301131,0.307885,0.339372,0.404816,0.49698,0.587458,0.657894,0.699464,0.75677,0.761797,0.79738,0.75756,0.73279,0.687536,0.593092,0.482936,0.388451,0.334758,0.302787,0.277977,0.261982,0.270881,0.32214,0.328134,0.298202,0.285125,0.320467,0.397273,0.473649,0.540595,0.608426,0.642742,0.69221,0.73216,0.738312,0.705204,0.679728,0.620448,0.529958,0.422584,0.336172,0.277646,0.24346,0.228998,0.216581,0.226729,0.287028,0.300754,0.266161,0.264729,0.286251,0.332212,0.378809,0.40976,0.395247,0.422472,0.491134,0.533842,0.565394,0.559919,0.560656,0.537266,0.456116,0.387519,0.307967,0.256838,0.234549,0.224101,0.212509,0.226181,0.281489,0.300683,0.275419,0.266502,0.27658,0.321645,0.368567,0.422425,0.462705,0.524094,0.567521,0.577009,0.560096,0.498017,0.449015,0.415206,0.372173,0.31861,0.266632,0.2239,0.195542,0.180344,0.174109,0.177326,0.18883,0.203439,0.23683,0.266279,0.291619,0.31706,0.348683,0.374601,0.432213,0.50272,0.526316,0.552971,0.551062,0.499308,0.465068,0.425884,0.376458,0.307478,0.254421,0.214849,0.191352,0.179743,0.170143,0.171015,0.178169,0.196674,0.239959,0.273545,0.274382,0.295344,0.322217,0.352602,0.397526,0.435861,0.488812,0.535498,0.526581,0.501977,0.499532,0.45571,0.367995,0.299593,0.232068,0.20206,0.176572,0.173885,0.166931,0.187068,0.255547,0.253366,0.231568,0.217306,0.212497,0.228368,0.242558,0.262908,0.29578,0.359863,0.429338,0.481015,0.487722,0.484404,0.470802,0.44146,0.371313,0.295768,0.235192,0.198654,0.182571,0.174904,0.172117,0.187846,0.254186,0.262737,0.236494,0.216935,0.217677,0.225769,0.246283,0.284052,0.330762,0.391073,0.464072,0.521908,0.54234,0.517877,0.490179,0.458008,0.388126,0.307655,0.251422,0.210482,0.187369,0.181623,0.178929,0.198636,0.257433,0.272779,0.248481,0.239352,0.239954,0.263161,0.300801,0.354789,0.397903,0.447919,0.448991,0.469706,0.492324,0.50246,0.525467,0.503981,0.451419,0.374165,0.308014,0.271388,0.245982,0.233937,0.229764,0.236541,0.303571,0.326808,0.292821,0.278088,0.315681,0.343485,0.391751,0.429514,0.428236,0.464473,0.512638,0.596192,0.609145,0.596899,0.604124,0.564027,0.505926,0.431866,0.354883,0.301473,0.274429,0.263998,0.249742,0.252754,0.296357,0.333544,0.32217,0.326973,0.352844,0.382852,0.442291,0.465198,0.48857,0.479772,0.508896,0.567339,0.58031,0.551716,0.520676,0.500569,0.465657,0.405323,0.336449,0.288555,0.251799,0.231302,0.218921,0.217088,0.224225,0.237084,0.279521,0.309688,0.362762,0.427263,0.498206,0.559082,0.637067,0.682056,0.695734,0.713207,0.686087,0.62699,0.589532,0.535675,0.480031,0.423621,0.35727,0.303836,0.262248,0.244014,0.223618,0.220382,0.223671,0.236901,0.266149,0.311261,0.350481,0.408263,0.480773,0.586138,0.648176,0.698032,0.736839,0.749881,0.726402,0.690483,0.636325,0.586698,0.505236,0.435826,0.352938,0.293865,0.260332,0.237726,0.224036,0.224849,0.242087,0.260497,0.257727,0.268683,0.314002,0.380188,0.456505,0.497911,0.551103,0.598095,0.659933,0.707497,0.708062,0.65223,0.625793,0.567468,0.505466,0.412583,0.343497,0.280063,0.244208,0.231344,0.219422,0.225981,0.261705,0.289062,0.273574,0.268359,0.324061,0.370111,0.390195,0.410526,0.456358,0.514724,0.529557,0.565282,0.580669,0.557096,0.552164,0.517512,0.44941,0.36641,0.302044,0.260167,0.225079,0.203151,0.195513,0.198636,0.224873,0.243124,0.232687,0.229269,0.246471,0.275071,0.321692,0.358336,0.395069,0.432443,0.470419,0.498689,0.490851,0.433987,0.424788,0.393401,0.344752,0.28186,0.227466,0.199691,0.183685,0.173472,0.17042,0.183709,0.218773,0.241226,0.239959,0.230554,0.234432,0.231868,0.24013,0.23175,0.233842,0.2558,0.274181,0.302964,0.324044,0.333384,0.356126,0.329076,0.293971,0.246118,0.208802,0.182513,0.17283,0.171109,0.175564,0.186555,0.228951,0.258476,0.25425,0.256537,0.253196,0.246253,0.241256,0.244592,0.241433,0.25804,0.26853,0.29852,0.319005,0.316795,0.308715,0.303907,0.282744,0.246849,0.21611,0.190822,0.181228,0.171357,0.171775,0.176036,0.191399,0.213587,0.245652,0.267139,0.287795,0.283728,0.279921,0.283263,0.285361,0.283009,0.306146,0.338488,0.351471,0.347776,0.346803,0.332913,0.305704,0.26434,0.22439,0.194334,0.185005,0.174421,0.171021,0.17461,0.184115,0.204695,0.24818,0.26398,0.268371,0.275384,0.297212,0.312935,0.318469,0.351329,0.380353,0.421883,0.440093,0.416649,0.436722,0.401357,0.348836,0.276668,0.219822,0.192142,0.174368,0.169654,0.170249,0.184946,0.243448,0.269243,0.238698,0.226399,0.225474,0.226016,0.23716,0.248676,0.269685,0.31686,0.374071,0.416037,0.439486,0.437264,0.457984,0.423556,0.373582,0.301879,0.244662,0.204972,0.187416,0.17788,0.172182,0.184964,0.24237,0.264953,0.243884,0.219522,0.226299,0.23686,0.242794,0.24907,0.243979,0.262748,0.300736,0.352573,0.379399,0.394385,0.422389,0.413526,0.363263,0.299952,0.244792,0.21222,0.196815,0.186396,0.184575,0.197192,0.25989,0.288372,0.254474,0.233471,0.234685,0.251145,0.272891,0.294749,0.318881,0.368414,0.408181,0.450353,0.467991,0.468197,0.489301,0.464697,0.406095,0.342684,0.290912,0.254551,0.235498,0.230071,0.230513,0.240849,0.290199,0.313872,0.287058,0.267887,0.268117,0.272967,0.2811,0.272631,0.28229,0.303547,0.337952,0.365697,0.395416,0.421152,0.462204,0.463088,0.422384,0.37753,0.317526,0.281495,0.266956,0.243348,0.234331,0.239688,0.284995,0.312316,0.275808,0.259926,0.26312,0.275218,0.293287,0.297236,0.325511,0.359073,0.393365,0.402246,0.406472,0.381508,0.369457,0.341158,0.318575,0.282326,0.230654,0.202549,0.17999,0.171374,0.171091,0.175841,0.184705,0.204194,0.238109,0.271335,0.284094,0.285473,0.306464,0.316217,0.327367,0.351341,0.384078,0.386588,0.390507,0.381732,0.373611,0.34431,0.30492,0.263915,0.232864,0.202785,0.179424,0.172046,0.16722,0.173172,0.179159,0.206309,0.258099,0.278165,0.299204,0.276928,0.286911,0.293057,0.304443,0.351441,0.368095,0.40346,0.406826,0.423692,0.428636,0.404456,0.335559,0.267887,0.214253,0.182017,0.171698,0.167756,0.168575,0.188353,0.249059,0.264911,0.238551,0.229582,0.229305,0.241038,0.249501,0.250225,0.245929,0.251923,0.272773,0.314833,0.346744,0.355177,0.373016,0.355973,0.319441,0.273003,0.228244,0.203339,0.18837,0.185041,0.190127,0.21776,0.276939,0.309045,0.288325,0.263297,0.263002,0.262077,0.274311,0.273598,0.272732,0.281713,0.311397,0.33949,0.366917,0.377401,0.391757,0.365284,0.321586,0.268683,0.21971,0.190409,0.174622,0.172759,0.170066,0.187934,0.251722,0.270009,0.236211,0.215243,0.216776,0.224319,0.236382,0.233583,0.244309,0.248776,0.272625,0.308934,0.331434,0.347222,0.370058,0.359898,0.316076,0.254003,0.210199,0.18395,0.169701,0.166318,0.171198,0.191293,0.25161,0.27823,0.24831,0.226181,0.222197,0.228503,0.221072,0.224531,0.219198,0.219722,0.23858,0.27041,0.299876,0.331923,0.356427,0.340716,0.292562,0.247815,0.207117,0.183921,0.174904,0.171268,0.169978,0.194818,0.250461,0.277694,0.251104,0.23363,0.24478,0.230348,0.244456,0.241704,0.233206,0.240572,0.249041,0.269926,0.28628,0.294472,0.312328,0.29324,0.287258,0.253013,0.222468,0.200634,0.188924,0.179283,0.180851,0.187911,0.201335,0.221909,0.268288,0.297271,0.326743,0.317243,0.299345,0.292898,0.290122,0.291902,0.294631,0.290329,0.309682,0.33164,0.336844,0.32349,0.297247,0.267599,0.236082,0.202019,0.188771,0.181623,0.185771,0.186915,0.199084,0.218544,0.266933,0.295403,0.294265,0.304349,0.304832,0.315793,0.311603,0.300595,0.29928,0.318722,0.328829,0.353557,0.378479,0.357759,0.316854,0.264723,0.226016,0.202467,0.190881,0.182843,0.195059,0.224902,0.297171,0.312245,0.28747,0.276715,0.261853,0.24811,0.24821,0.237054,0.234414,0.226234,0.248257,0.275154,0.307932,0.357594,0.377884,0.36994,0.322942,0.27368,0.23373,0.21532,0.214625,0.216681,0.225492,0.263898,0.349013,0.367329,0.329259,0.307254,0.285791,0.263467,0.249878,0.245287,0.229652,0.221266,0.245016,0.276303,0.309181,0.345354,0.36938,0.36605,0.330061,0.274541,0.21971,0.190409,0.174622,0.172759,0.170066,0.187934,0.251722,0.270009,0.236211,0.215243,0.216776,0.224319,0.236382,0.233583,0.244309,0.248776,0.272625,0.308934,0.331434,0.347222,0.370058,0.359898,0.316076,0.254003,0.212379,0.192272,0.187763,0.186152,0.193374,0.221579,0.285567,0.300689,0.291761,0.264287,0.246277,0.234356,0.223918,0.224478,0.224944,0.238074,0.265556,0.288248,0.319117,0.355961,0.347316,0.324951,0.277499,0.229517,0.199939,0.183249,0.180279,0.176213,0.19589,0.24633,0.294566,0.291213,0.268824,0.253366,0.243089,0.233412,0.230772,0.219917,0.223559,0.237425,0.251663,0.280646,0.296522,0.309829,0.306788,0.297371,0.270569,0.23594,0.208596,0.191812,0.190032,0.195177,0.205614,0.228379,0.247839,0.284712,0.339502,0.35163,0.342489,0.327468,0.317155,0.29568,0.287524,0.284606,0.294083,0.305144,0.321356,0.335029,0.329141,0.323985,0.304207,0.270486,0.242994,0.22891,0.230354,0.237408,0.245611,0.266726,0.286168,0.330385,0.386795,0.413178,0.383099,0.338759,0.320838,0.314137,0.303765,0.300265,0.302864,0.321822,0.348371,0.369162,0.385156,0.379292,0.339714,0.289563,0.251934,0.234844,0.228633,0.234143,0.243943,0.2714,0.344546,0.410786,0.378591,0.330461,0.292332,0.2681,0.24775,0.23693,0.227053,0.227566,0.232905,0.27688,0.327774,0.35991,0.364,0.355101,0.318416,0.26685,0.213593,0.189855,0.178163,0.175282,0.1787,0.195236,0.255653,0.31142,0.294902,0.270168,0.258069,0.264593,0.251192,0.240637,0.234172,0.243071,0.248351,0.291496,0.362821,0.416048,0.429579,0.439268,0.402523,0.367771,0.338193,0.313513,0.310041,0.320437,0.331027,0.354806,0.415636,0.473654,0.443204,0.391874,0.354435,0.320278,0.291437,0.272201,0.264894,0.254734,0.27081,0.309016,0.377029,0.420527,0.442232,0.45357,0.434547,0.403195,0.362114,0.354282,0.363092,0.362025,0.373217,0.389894,0.442662,0.477638,0.439951,0.38442,0.346226,0.317013,0.28928,0.270404,0.25425,0.249937,0.261929,0.294295,0.360505,0.409436,0.443876,0.450182,0.425849,0.381968,0.349043,0.327491,0.311868,0.308621,0.309529,0.318363,0.378161,0.420881,0.392959,0.353305,0.31438,0.295621,0.267245,0.255005,0.242393,0.234632,0.249023,0.267251,0.296534,0.327868,0.332106,0.332512,0.319842,0.287895,0.262902,0.242393,0.232516,0.23145,0.236506,0.252376,0.272431,0.295992,0.333048,0.36199,0.361778,0.356191,0.32732,0.306671,0.299675,0.293146,0.295538,0.31399,0.350716,0.370747,0.379941,0.386559,0.369044,0.348076,0.327886,0.319588,0.318227,0.315611,0.32623,0.342961,0.362703,0.399288,0.434011,0.449274,0.43232,0.387849,0.356957,0.341971,0.328458,0.313436,0.325653,0.342713,0.362986,0.384826,0.403961,0.40369,0.382734,0.332259,0.283634,0.256938,0.25573,0.255199,0.263061,0.287123,0.337109,0.388327,0.372869,0.337445,0.310837,0.2875,0.270852,0.265589,0.257429,0.246395,0.245434,0.276486,0.335989,0.385245,0.391285,0.375656,0.345996,0.294041,0.25458,0.230654,0.22644,0.224024,0.226063,0.243059,0.286822,0.335506,0.309723,0.279697,0.259501,0.2397,0.228627,0.217271,0.219339,0.224773,0.240702,0.275784,0.31676,0.346078,0.35968,0.354794,0.318145,0.27137,0.227348,0.192672,0.17468,0.169094,0.169654,0.186048,0.236488,0.2873,0.271989,0.239665,0.225114,0.220706,0.223818,0.218927,0.22248,0.227743,0.248198,0.283793,0.329395,0.353716,0.356498,0.348442,0.321574,0.280186,0.219787,0.183078,0.173278,0.173614,0.169795,0.18741,0.246996,0.312581,0.292362,0.273168,0.266862,0.275784,0.279002,0.269119,0.27292,0.284341,0.314473,0.344134,0.408346,0.441678,0.466146,0.484922,0.472122,0.386406,0.315398,0.426739,0.391155,0.379628,0.383712,0.398003,0.453953,0.516062,0.492295,0.44684,