

!!!master.dss
clear
new object=circuit.eprik1


! redirect vsource.dss
! redirect k21_feeder\branches.dss
! redirect k21_feeder\transformers.dss
! redirect k21_feeder\loads.dss
! redirect k21_feeder\capacitors.dss
! makebuslist
! redirect busvoltagebases.dss ! set voltage bases
! buscoords buscoords.dss
! giscoords giscoords.dss


!!!loadshape.dss
new object=loadshape.default npts=24 interval=1 mult=[0.677,0.6256,0.6087,0.5833,0.58028,0.6025,0.657,0.7477,0.832,0.88,0.94,0.989,0.985,0.98,0.9898,0.999,1,0.958,0.936,0.913,0.876,0.876,0.828,0.756]
new object=loadshape.k21_a npts=1 interval=1 mult=[1] action=normalize
new object=loadshape.k21_b npts=1 interval=1 mult=[1] action=normalize
new object=loadshape.k21_c npts=1 interval=1 mult=[1] action=normalize
new object=loadshape.k21_abc npts=1 interval=1 mult=[1] action=normalize
new object=loadshape.aggloadprofilek22 npts=1 interval=1 mult=[1] action=normalize
new object=loadshape.pv_1mw npts=1 interval=1 mult=[1] action=normalize


!!!vsource.dss
edit object=vsource.source pu=1.00 bus1=trans_equiv basekv=69 r1=0.80626 x1=7.8138 r0=0.91631 x0=14.557


!!!transformer.dss
new object=transformer.t2 phases=3 windings=2 buses=[trans_equiv.1.2.3,k_lsb.1.2.3.4] conns=[delta,wye] kvs=[66,13.8] kvas=[12000,12000] xhl=7.904196 buses=[trans_equiv.1.2.3,k_lsb.1.2.3.4] conns=[delta,wye] kvs=[66,13.8] kvas=[12000,12000] taps=[1,0.95625] wdg=1 %r=0.2500417 rdcohms=0.7715036 wdg=2 %r=0.2500417 rdcohms=0.01124312 mintap=0.9 maxtap=1.1


!!!transformers.dss
new object=transformer.10548994-sc phases=1 buses=[10548994.3,sec_10548994.3] conns=[wye,wye] kvs=[7.62,0.24] kvas=[15,15] taps=[1,1] wdg=1 %r=0.38195 rdcohms=12.56736 wdg=2 %r=0.38195 rdcohms=0.01246685 %loadloss=0.7639 %noloadloss=0.0851 xhl=2.1 emerghkva=21
new object=transformer.10548977-sa phases=1 buses=[10548977.1,sec_10548977.1] conns=[wye,wye] kvs=[7.62,0.24] kvas=[15,15] taps=[1,1] wdg=1 %r=0.38195 rdcohms=12.56736 wdg=2 %r=0.38195 rdcohms=0.01246685 %loadloss=0.7639 %noloadloss=0.0851 xhl=2.1 emerghkva=21
new object=transformer.34095590-sa phases=1 buses=[34095590.1,sec_34095590.1] conns=[wye,wye] kvs=[7.62,0.24] kvas=[37.5,37.5] taps=[1,1] wdg=1 %r=0.504 rdcohms=6.633277 wdg=2 %r=0.504 rdcohms=0.006580224 %loadloss=1.008 %noloadloss=0.23 xhl=1.803 emerghkva=51.8
new object=transformer.10548907-sb phases=1 buses=[10548907.2,sec_10548907.2] conns=[wye,wye] kvs=[7.62,0.24] kvas=[37.5,37.5] taps=[1,1] wdg=1 %r=0.4055 rdcohms=5.336893 wdg=2 %r=0.4055 rdcohms=0.005294208 %loadloss=0.811 %noloadloss=0.184 xhl=1.765 emerghkva=51.8
new object=transformer.34084616-sa phases=1 buses=[34084616.1,sec_34084616.1] conns=[wye,wye] kvs=[7.62,0.24] kvas=[50,50] taps=[1,1] wdg=1 %r=0.369 rdcohms=3.64238 wdg=2 %r=0.369 rdcohms=0.003613248 %loadloss=0.738 %noloadloss=0.1987 xhl=1.7532 emerghkva=70
new object=transformer.34095591-sc phases=1 buses=[34095591.3,sec_34095591.3] conns=[wye,wye] kvs=[7.62,0.24] kvas=[25,25] taps=[1,1] wdg=1 %r=0.38195 rdcohms=7.540417 wdg=2 %r=0.38195 rdcohms=0.007480109 %loadloss=0.7639 %noloadloss=0.0851 xhl=2.1 emerghkva=35
new object=transformer.10548956-sc phases=1 buses=[10548956.3,sec_10548956.3] conns=[wye,wye] kvs=[7.62,0.24] kvas=[25,25] taps=[1,1] wdg=1 %r=0.504 rdcohms=9.949916 wdg=2 %r=0.504 rdcohms=0.009870336 %loadloss=1.008 %noloadloss=0.23 xhl=1.803 emerghkva=35
new object=transformer.10548954-sc phases=1 buses=[10548954.3,sec_10548954.3] conns=[wye,wye] kvs=[7.62,0.24] kvas=[15,15] taps=[1,1] wdg=1 %r=0.504 rdcohms=16.58319 wdg=2 %r=0.504 rdcohms=0.01645056 %loadloss=1.008 %noloadloss=0.23 xhl=1.803 emerghkva=21
new object=transformer.10548910-sb phases=1 buses=[10548910.2,sec_10548910.2] conns=[wye,wye] kvs=[7.62,0.24] kvas=[25,25] taps=[1,1] wdg=1 %r=0.504 rdcohms=9.949916 wdg=2 %r=0.504 rdcohms=0.009870336 %loadloss=1.008 %noloadloss=0.23 xhl=1.803 emerghkva=35
new object=transformer.34095643-sa phases=1 buses=[34095643.1,sec_34095643.1] conns=[wye,wye] kvs=[7.62,0.24] kvas=[15,15] taps=[1,1] wdg=1 %r=0.504 rdcohms=16.58319 wdg=2 %r=0.504 rdcohms=0.01645056 %loadloss=1.008 %noloadloss=0.23 xhl=1.803 emerghkva=21
new object=transformer.10548927-sc phases=1 buses=[10548927.3,sec_10548927.3] conns=[wye,wye] kvs=[7.62,0.24] kvas=[15,15] taps=[1,1] wdg=1 %r=0.504 rdcohms=16.58319 wdg=2 %r=0.504 rdcohms=0.01645056 %loadloss=1.008 %noloadloss=0.23 xhl=1.803 emerghkva=21
new object=transformer.20409718-sc phases=1 buses=[20409718.3,sec_20409718.3] conns=[wye,wye] kvs=[7.62,0.24] kvas=[15,15] taps=[1,1] wdg=1 %r=0.504 rdcohms=16.58319 wdg=2 %r=0.504 rdcohms=0.01645056 %loadloss=1.008 %noloadloss=0.23 xhl=1.803 emerghkva=21
new object=transformer.10548938-sc phases=1 buses=[10548938.3,sec_10548938.3] conns=[wye,wye] kvs=[7.62,0.24] kvas=[37.5,37.5] taps=[1,1] wdg=1 %r=0.504 rdcohms=6.633277 wdg=2 %r=0.504 rdcohms=0.006580224 %loadloss=1.008 %noloadloss=0.23 xhl=1.803 emerghkva=51.8
new object=transformer.20416460-sa phases=1 buses=[20416460.1,sec_20416460.1] conns=[wye,wye] kvs=[7.62,0.24] kvas=[50,50] taps=[1,1] wdg=1 %r=0.4055 rdcohms=4.002669 wdg=2 %r=0.4055 rdcohms=0.003970656 %loadloss=0.811 %noloadloss=0.184 xhl=1.765 emerghkva=70
new object=transformer.34057718-sa phases=1 buses=[34057718.1,sec_34057718.1] conns=[wye,wye] kvs=[7.62,0.24] kvas=[50,50] taps=[1,1] wdg=1 %r=0.4055 rdcohms=4.002669 wdg=2 %r=0.4055 rdcohms=0.003970656 %loadloss=0.811 %noloadloss=0.184 xhl=1.765 emerghkva=70
new object=transformer.10548953-sa phases=1 buses=[10548953.1,sec_10548953.1] conns=[wye,wye] kvs=[7.62,0.24] kvas=[37.5,37.5] taps=[1,1] wdg=1 %r=0.38195 rdcohms=5.026945 wdg=2 %r=0.38195 rdcohms=0.004986739 %loadloss=0.7639 %noloadloss=0.0851 xhl=2.1 emerghkva=51.8
new object=transformer.10548961-sb phases=1 buses=[10548961.2,sec_10548961.2] conns=[wye,wye] kvs=[7.62,0.24] kvas=[10,10] taps=[1,1] wdg=1 %r=0.5765 rdcohms=28.45301 wdg=2 %r=0.5765 rdcohms=0.02822544 %loadloss=1.153 %noloadloss=0.318 xhl=1.888 emerghkva=14
new object=transformer.10548911-sa phases=1 buses=[10548911.1,sec_10548911.1] conns=[wye,wye] kvs=[7.62,0.24] kvas=[50,50] taps=[1,1] wdg=1 %r=0.369 rdcohms=3.64238 wdg=2 %r=0.369 rdcohms=0.003613248 %loadloss=0.738 %noloadloss=0.1987 xhl=1.7532 emerghkva=70
new object=transformer.34095651-sa phases=1 buses=[34095651.1,sec_34095651.1] conns=[wye,wye] kvs=[7.62,0.24] kvas=[10,10] taps=[1,1] wdg=1 %r=0.5765 rdcohms=28.45301 wdg=2 %r=0.5765 rdcohms=0.02822544 %loadloss=1.153 %noloadloss=0.318 xhl=1.888 emerghkva=14
new object=transformer.34090003-sc phases=1 buses=[34090003.3,sec_34090003.3] conns=[wye,wye] kvs=[7.62,0.24] kvas=[15,15] taps=[1,1] wdg=1 %r=0.369 rdcohms=12.14127 wdg=2 %r=0.369 rdcohms=0.01204416 %loadloss=0.738 %noloadloss=0.1987 xhl=1.7532 emerghkva=21
new object=transformer.10548979-sa phases=1 buses=[10548979.1,sec_10548979.1] conns=[wye,wye] kvs=[7.62,0.24] kvas=[38,38] taps=[1,1] wdg=1 %r=0.4155 rdcohms=5.396551 wdg=2 %r=0.4155 rdcohms=0.005353389 %loadloss=0.831 %noloadloss=0.219 xhl=1.686 emerghkva=53.2
new object=transformer.10548983-sa phases=1 buses=[10548983.1,sec_10548983.1] conns=[wye,wye] kvs=[7.62,0.24] kvas=[15,15] taps=[1,1] wdg=1 %r=0.38195 rdcohms=12.56736 wdg=2 %r=0.38195 rdcohms=0.01246685 %loadloss=0.7639 %noloadloss=0.0851 xhl=2.1 emerghkva=21
new object=transformer.34095588-sa phases=1 buses=[34095588.1,sec_34095588.1] conns=[wye,wye] kvs=[7.62,0.24] kvas=[37.5,37.5] taps=[1,1] wdg=1 %r=0.504 rdcohms=6.633277 wdg=2 %r=0.504 rdcohms=0.006580224 %loadloss=1.008 %noloadloss=0.23 xhl=1.803 emerghkva=51.8
new object=transformer.10548981-sa phases=1 buses=[10548981.1,sec_10548981.1] conns=[wye,wye] kvs=[7.62,0.24] kvas=[25,25] taps=[1,1] wdg=1 %r=0.38195 rdcohms=7.540417 wdg=2 %r=0.38195 rdcohms=0.007480109 %loadloss=0.7639 %noloadloss=0.0851 xhl=2.1 emerghkva=35
new object=transformer.10548982-sa phases=1 buses=[10548982.1,sec_10548982.1] conns=[wye,wye] kvs=[7.62,0.24] kvas=[75,75] taps=[1,1] wdg=1 %r=0.3745 rdcohms=2.464447 wdg=2 %r=0.3745 rdcohms=0.002444736 %loadloss=0.749 %noloadloss=0.171 xhl=1.773 emerghkva=105
new object=transformer.34090004-sabc phases=3 buses=[34090004,sec_34090004] conns=[wye,wye] kvs=[13.2,0.48] kvas=[45,45] taps=[1,1] wdg=1 %r=0.504 rdcohms=5.529216 wdg=2 %r=0.504 rdcohms=0.00731136 %loadloss=1.008 %noloadloss=0.23 xhl=1.803 emerghkva=21
new object=transformer.10548965-sabc phases=3 buses=[10548965,sec_10548965] conns=[wye,wye] kvs=[13.2,0.48] kvas=[75,75] taps=[1,1] wdg=1 %r=0.38195 rdcohms=2.514148 wdg=2 %r=0.38195 rdcohms=0.003324493 %loadloss=0.7639 %noloadloss=0.0851 xhl=2.1 emerghkva=35
new object=transformer.10559591-sb phases=1 buses=[10559591.2,sec_10559591.2] conns=[wye,wye] kvs=[7.62,0.24] kvas=[15,15] taps=[1,1] wdg=1 %r=0.38195 rdcohms=12.56736 wdg=2 %r=0.38195 rdcohms=0.01246685 %loadloss=0.7639 %noloadloss=0.0851 xhl=2.1 emerghkva=21
new object=transformer.34095654-sb phases=1 buses=[34095654.2,sec_34095654.2] conns=[wye,wye] kvs=[7.62,0.24] kvas=[37.5,37.5] taps=[1,1] wdg=1 %r=0.369 rdcohms=4.856506 wdg=2 %r=0.369 rdcohms=0.004817664 %loadloss=0.738 %noloadloss=0.1987 xhl=1.7532 emerghkva=51.8
new object=transformer.10559784-sb phases=1 buses=[10559784.2,sec_10559784.2] conns=[wye,wye] kvs=[7.62,0.24] kvas=[50,50] taps=[1,1] wdg=1 %r=0.4055 rdcohms=4.002669 wdg=2 %r=0.4055 rdcohms=0.003970656 %loadloss=0.811 %noloadloss=0.184 xhl=1.765 emerghkva=70
new object=transformer.34084663-sb phases=1 buses=[34084663.2,sec_34084663.2] conns=[wye,wye] kvs=[7.62,0.24] kvas=[50,50] taps=[1,1] wdg=1 %r=0.4055 rdcohms=4.002669 wdg=2 %r=0.4055 rdcohms=0.003970656 %loadloss=0.811 %noloadloss=0.184 xhl=1.765 emerghkva=70
new object=transformer.34084661-sb phases=1 buses=[34084661.2,sec_34084661.2] conns=[wye,wye] kvs=[7.62,0.24] kvas=[50,50] taps=[1,1] wdg=1 %r=0.4055 rdcohms=4.002669 wdg=2 %r=0.4055 rdcohms=0.003970656 %loadloss=0.811 %noloadloss=0.184 xhl=1.765 emerghkva=70
new object=transformer.10559783-sb phases=1 buses=[10559783.2,sec_10559783.2] conns=[wye,wye] kvs=[7.62,0.24] kvas=[25,25] taps=[1,1] wdg=1 %r=0.504 rdcohms=9.949916 wdg=2 %r=0.504 rdcohms=0.009870336 %loadloss=1.008 %noloadloss=0.23 xhl=1.803 emerghkva=35
new object=transformer.10560281-sb phases=1 buses=[10560281.2,sec_10560281.2] conns=[wye,wye] kvs=[7.62,0.24] kvas=[25,25] taps=[1,1] wdg=1 %r=0.504 rdcohms=9.949916 wdg=2 %r=0.504 rdcohms=0.009870336 %loadloss=1.008 %noloadloss=0.23 xhl=1.803 emerghkva=35
new object=transformer.10560338-sb phases=1 buses=[10560338.2,sec_10560338.2] conns=[wye,wye] kvs=[7.62,0.24] kvas=[25,25] taps=[1,1] wdg=1 %r=0.504 rdcohms=9.949916 wdg=2 %r=0.504 rdcohms=0.009870336 %loadloss=1.008 %noloadloss=0.23 xhl=1.803 emerghkva=35
new object=transformer.10560337-sb phases=1 buses=[10560337.2,sec_10560337.2] conns=[wye,wye] kvs=[7.62,0.24] kvas=[15,15] taps=[1,1] wdg=1 %r=0.504 rdcohms=16.58319 wdg=2 %r=0.504 rdcohms=0.01645056 %loadloss=1.008 %noloadloss=0.23 xhl=1.803 emerghkva=21
new object=transformer.34084666-sb phases=1 buses=[34084666.2,sec_34084666.2] conns=[wye,wye] kvs=[7.62,0.24] kvas=[25,25] taps=[1,1] wdg=1 %r=0.38195 rdcohms=7.540417 wdg=2 %r=0.38195 rdcohms=0.007480109 %loadloss=0.7639 %noloadloss=0.0851 xhl=2.1 emerghkva=35
new object=transformer.10560401-sb phases=1 buses=[10560401.2,sec_10560401.2] conns=[wye,wye] kvs=[7.62,0.24] kvas=[15,15] taps=[1,1] wdg=1 %r=0.504 rdcohms=16.58319 wdg=2 %r=0.504 rdcohms=0.01645056 %loadloss=1.008 %noloadloss=0.23 xhl=1.803 emerghkva=21
new object=transformer.34095650-sb phases=1 buses=[34095650.2,sec_34095650.2] conns=[wye,wye] kvs=[7.62,0.24] kvas=[25,25] taps=[1,1] wdg=1 %r=0.38195 rdcohms=7.540417 wdg=2 %r=0.38195 rdcohms=0.007480109 %loadloss=0.7639 %noloadloss=0.0851 xhl=2.1 emerghkva=35
new object=transformer.34084664-sb phases=1 buses=[34084664.2,sec_34084664.2] conns=[wye,wye] kvs=[7.62,0.24] kvas=[50,50] taps=[1,1] wdg=1 %r=0.4055 rdcohms=4.002669 wdg=2 %r=0.4055 rdcohms=0.003970656 %loadloss=0.811 %noloadloss=0.184 xhl=1.765 emerghkva=70
new object=transformer.34084665-sb phases=1 buses=[34084665.2,sec_34084665.2] conns=[wye,wye] kvs=[7.62,0.24] kvas=[37.5,37.5] taps=[1,1] wdg=1 %r=0.38195 rdcohms=5.026945 wdg=2 %r=0.38195 rdcohms=0.004986739 %loadloss=0.7639 %noloadloss=0.0851 xhl=2.1 emerghkva=51.8
new object=transformer.10559592-sb phases=1 buses=[10559592.2,sec_10559592.2] conns=[wye,wye] kvs=[7.62,0.24] kvas=[25,25] taps=[1,1] wdg=1 %r=0.504 rdcohms=9.949916 wdg=2 %r=0.504 rdcohms=0.009870336 %loadloss=1.008 %noloadloss=0.23 xhl=1.803 emerghkva=35
new object=transformer.10560402-sb phases=1 buses=[10560402.2,sec_10560402.2] conns=[wye,wye] kvs=[7.62,0.24] kvas=[15,15] taps=[1,1] wdg=1 %r=0.38195 rdcohms=12.56736 wdg=2 %r=0.38195 rdcohms=0.01246685 %loadloss=0.7639 %noloadloss=0.0851 xhl=2.1 emerghkva=21
new object=transformer.10548950-sb phases=1 buses=[10548950.2,sec_10548950.2] conns=[wye,wye] kvs=[7.62,0.24] kvas=[15,15] taps=[1,1] wdg=1 %r=0.504 rdcohms=16.58319 wdg=2 %r=0.504 rdcohms=0.01645056 %loadloss=1.008 %noloadloss=0.23 xhl=1.803 emerghkva=21
new object=transformer.34085352-sb phases=1 buses=[34085352.2,sec_34085352.2] conns=[wye,wye] kvs=[7.62,0.24] kvas=[15,15] taps=[1,1] wdg=1 %r=0.38195 rdcohms=12.56736 wdg=2 %r=0.38195 rdcohms=0.01246685 %loadloss=0.7639 %noloadloss=0.0851 xhl=2.1 emerghkva=21
new object=transformer.34090753-sa phases=1 buses=[34090753.1,sec_34090753.1] conns=[wye,wye] kvs=[7.62,0.24] kvas=[15,15] taps=[1,1] wdg=1 %r=0.504 rdcohms=16.58319 wdg=2 %r=0.504 rdcohms=0.01645056 %loadloss=1.008 %noloadloss=0.23 xhl=1.803 emerghkva=21
new object=transformer.10548941-sc phases=1 buses=[10548941.3,sec_10548941.3] conns=[wye,wye] kvs=[7.62,0.24] kvas=[15,15] taps=[1,1] wdg=1 %r=0.38195 rdcohms=12.56736 wdg=2 %r=0.38195 rdcohms=0.01246685 %loadloss=0.7639 %noloadloss=0.0851 xhl=2.1 emerghkva=21
new object=transformer.34085402-sb phases=1 buses=[34085402.2,sec_34085402.2] conns=[wye,wye] kvs=[7.62,0.24] kvas=[15,15] taps=[1,1] wdg=1 %r=0.38195 rdcohms=12.56736 wdg=2 %r=0.38195 rdcohms=0.01246685 %loadloss=0.7639 %noloadloss=0.0851 xhl=2.1 emerghkva=21
new object=transformer.10548931-sa phases=1 buses=[10548931.1,sec_10548931.1] conns=[wye,wye] kvs=[7.62,0.24] kvas=[25,25] taps=[1,1] wdg=1 %r=0.38195 rdcohms=7.540417 wdg=2 %r=0.38195 rdcohms=0.007480109 %loadloss=0.7639 %noloadloss=0.0851 xhl=2.1 emerghkva=35
new object=transformer.10549239-sb phases=1 buses=[10549239.2,sec_10549239.2] conns=[wye,wye] kvs=[7.62,0.24] kvas=[15,15] taps=[1,1] wdg=1 %r=0.504 rdcohms=16.58319 wdg=2 %r=0.504 rdcohms=0.01645056 %loadloss=1.008 %noloadloss=0.23 xhl=1.803 emerghkva=21
new object=transformer.10549241-sb phases=1 buses=[10549241.2,sec_10549241.2] conns=[wye,wye] kvs=[7.62,0.24] kvas=[25,25] taps=[1,1] wdg=1 %r=0.38195 rdcohms=7.540417 wdg=2 %r=0.38195 rdcohms=0.007480109 %loadloss=0.7639 %noloadloss=0.0851 xhl=2.1 emerghkva=35
new object=transformer.10549232-sb phases=1 buses=[10549232.2,sec_10549232.2] conns=[wye,wye] kvs=[7.62,0.24] kvas=[15,15] taps=[1,1] wdg=1 %r=0.369 rdcohms=12.14127 wdg=2 %r=0.369 rdcohms=0.01204416 %loadloss=0.738 %noloadloss=0.1987 xhl=1.7532 emerghkva=21
new object=transformer.10559558-sa phases=1 buses=[10559558.1,sec_10559558.1] conns=[wye,wye] kvs=[7.62,0.24] kvas=[50,50] taps=[1,1] wdg=1 %r=0.369 rdcohms=3.64238 wdg=2 %r=0.369 rdcohms=0.003613248 %loadloss=0.738 %noloadloss=0.1987 xhl=1.7532 emerghkva=70
new object=transformer.10559574-sa phases=1 buses=[10559574.1,sec_10559574.1] conns=[wye,wye] kvs=[7.62,0.24] kvas=[25,25] taps=[1,1] wdg=1 %r=0.504 rdcohms=9.949916 wdg=2 %r=0.504 rdcohms=0.009870336 %loadloss=1.008 %noloadloss=0.23 xhl=1.803 emerghkva=35
new object=transformer.34097394-sa phases=1 buses=[34097394.1,sec_34097394.1] conns=[wye,wye] kvs=[7.62,0.24] kvas=[25,25] taps=[1,1] wdg=1 %r=0.504 rdcohms=9.949916 wdg=2 %r=0.504 rdcohms=0.009870336 %loadloss=1.008 %noloadloss=0.23 xhl=1.803 emerghkva=35
new object=transformer.34097395-sa phases=1 buses=[34097395.1,sec_34097395.1] conns=[wye,wye] kvs=[7.62,0.24] kvas=[25,25] taps=[1,1] wdg=1 %r=0.38195 rdcohms=7.540417 wdg=2 %r=0.38195 rdcohms=0.007480109 %loadloss=0.7639 %noloadloss=0.0851 xhl=2.1 emerghkva=35
new object=transformer.10559507-sa phases=1 buses=[10559507.1,sec_10559507.1] conns=[wye,wye] kvs=[7.62,0.24] kvas=[25,25] taps=[1,1] wdg=1 %r=0.38195 rdcohms=7.540417 wdg=2 %r=0.38195 rdcohms=0.007480109 %loadloss=0.7639 %noloadloss=0.0851 xhl=2.1 emerghkva=35
new object=transformer.34085286-sb phases=1 buses=[34085286.2,sec_34085286.2] conns=[wye,wye] kvs=[7.62,0.24] kvas=[25,25] taps=[1,1] wdg=1 %r=0.38195 rdcohms=7.540417 wdg=2 %r=0.38195 rdcohms=0.007480109 %loadloss=0.7639 %noloadloss=0.0851 xhl=2.1 emerghkva=35
new object=transformer.10549226-sc phases=1 buses=[10549226.3,sec_10549226.3] conns=[wye,wye] kvs=[7.62,0.24] kvas=[25,25] taps=[1,1] wdg=1 %r=0.504 rdcohms=9.949916 wdg=2 %r=0.504 rdcohms=0.009870336 %loadloss=1.008 %noloadloss=0.23 xhl=1.803 emerghkva=35
new object=transformer.34095658-sc phases=1 buses=[34095658.3,sec_34095658.3] conns=[wye,wye] kvs=[7.62,0.24] kvas=[15,15] taps=[1,1] wdg=1 %r=0.504 rdcohms=16.58319 wdg=2 %r=0.504 rdcohms=0.01645056 %loadloss=1.008 %noloadloss=0.23 xhl=1.803 emerghkva=21
new object=transformer.10549248-sc phases=1 buses=[10549248.3,sec_10549248.3] conns=[wye,wye] kvs=[7.62,0.24] kvas=[15,15] taps=[1,1] wdg=1 %r=0.504 rdcohms=16.58319 wdg=2 %r=0.504 rdcohms=0.01645056 %loadloss=1.008 %noloadloss=0.23 xhl=1.803 emerghkva=21
new object=transformer.34085952-sc phases=1 buses=[34085952.3,sec_34085952.3] conns=[wye,wye] kvs=[7.62,0.24] kvas=[25,25] taps=[1,1] wdg=1 %r=0.504 rdcohms=9.949916 wdg=2 %r=0.504 rdcohms=0.009870336 %loadloss=1.008 %noloadloss=0.23 xhl=1.803 emerghkva=35
new object=transformer.10541616-sc phases=1 buses=[10541616.3,sec_10541616.3] conns=[wye,wye] kvs=[7.62,0.24] kvas=[15,15] taps=[1,1] wdg=1 %r=0.38195 rdcohms=12.56736 wdg=2 %r=0.38195 rdcohms=0.01246685 %loadloss=0.7639 %noloadloss=0.0851 xhl=2.1 emerghkva=21
new object=transformer.34085953-sc phases=1 buses=[34085953.3,sec_34085953.3] conns=[wye,wye] kvs=[7.62,0.24] kvas=[25,25] taps=[1,1] wdg=1 %r=0.504 rdcohms=9.949916 wdg=2 %r=0.504 rdcohms=0.009870336 %loadloss=1.008 %noloadloss=0.23 xhl=1.803 emerghkva=35
new object=transformer.10549259-sc phases=1 buses=[10549259.3,sec_10549259.3] conns=[wye,wye] kvs=[7.62,0.24] kvas=[15,15] taps=[1,1] wdg=1 %r=0.504 rdcohms=16.58319 wdg=2 %r=0.504 rdcohms=0.01645056 %loadloss=1.008 %noloadloss=0.23 xhl=1.803 emerghkva=21
new object=transformer.10549255-sc phases=1 buses=[10549255.3,sec_10549255.3] conns=[wye,wye] kvs=[7.62,0.24] kvas=[25,25] taps=[1,1] wdg=1 %r=0.504 rdcohms=9.949916 wdg=2 %r=0.504 rdcohms=0.009870336 %loadloss=1.008 %noloadloss=0.23 xhl=1.803 emerghkva=35
new object=transformer.34095667-sc phases=1 buses=[34095667.3,sec_34095667.3] conns=[wye,wye] kvs=[7.62,0.24] kvas=[25,25] taps=[1,1] wdg=1 %r=0.38195 rdcohms=7.540417 wdg=2 %r=0.38195 rdcohms=0.007480109 %loadloss=0.7639 %noloadloss=0.0851 xhl=2.1 emerghkva=35
new object=transformer.10549258-sc phases=1 buses=[10549258.3,sec_10549258.3] conns=[wye,wye] kvs=[7.62,0.24] kvas=[15,15] taps=[1,1] wdg=1 %r=0.38195 rdcohms=12.56736 wdg=2 %r=0.38195 rdcohms=0.01246685 %loadloss=0.7639 %noloadloss=0.0851 xhl=2.1 emerghkva=21
new object=transformer.34085468-sc phases=1 buses=[34085468.3,sec_34085468.3] conns=[wye,wye] kvs=[7.62,0.24] kvas=[15,15] taps=[1,1] wdg=1 %r=0.4055 rdcohms=13.34223 wdg=2 %r=0.4055 rdcohms=0.01323552 %loadloss=0.811 %noloadloss=0.184 xhl=1.765 emerghkva=21
new object=transformer.34086806-sc phases=1 buses=[34086806.3,sec_34086806.3] conns=[wye,wye] kvs=[7.62,0.24] kvas=[25,25] taps=[1,1] wdg=1 %r=0.504 rdcohms=9.949916 wdg=2 %r=0.504 rdcohms=0.009870336 %loadloss=1.008 %noloadloss=0.23 xhl=1.803 emerghkva=35
new object=transformer.10523032-sc phases=1 buses=[10523032.3,sec_10523032.3] conns=[wye,wye] kvs=[7.62,0.24] kvas=[15,15] taps=[1,1] wdg=1 %r=0.504 rdcohms=16.58319 wdg=2 %r=0.504 rdcohms=0.01645056 %loadloss=1.008 %noloadloss=0.23 xhl=1.803 emerghkva=21
new object=transformer.34092234-sc phases=1 buses=[34092234.3,sec_34092234.3] conns=[wye,wye] kvs=[7.62,0.24] kvas=[5,5] taps=[1,1] wdg=1 %r=0.38195 rdcohms=37.70209 wdg=2 %r=0.38195 rdcohms=0.03740054 %loadloss=0.7639 %noloadloss=0.0851 xhl=2.1 emerghkva=7
new object=transformer.34092313-sc phases=1 buses=[34092313.3,sec_34092313.3] conns=[wye,wye] kvs=[7.62,0.24] kvas=[15,15] taps=[1,1] wdg=1 %r=0.38195 rdcohms=12.56736 wdg=2 %r=0.38195 rdcohms=0.01246685 %loadloss=0.7639 %noloadloss=0.0851 xhl=2.1 emerghkva=21
new object=transformer.34086805-sc phases=1 buses=[34086805.3,sec_34086805.3] conns=[wye,wye] kvs=[7.62,0.24] kvas=[15,15] taps=[1,1] wdg=1 %r=0.38195 rdcohms=12.56736 wdg=2 %r=0.38195 rdcohms=0.01246685 %loadloss=0.7639 %noloadloss=0.0851 xhl=2.1 emerghkva=21
new object=transformer.34097392-sc phases=1 buses=[34097392.3,sec_34097392.3] conns=[wye,wye] kvs=[7.62,0.24] kvas=[15,15] taps=[1,1] wdg=1 %r=0.504 rdcohms=16.58319 wdg=2 %r=0.504 rdcohms=0.01645056 %loadloss=1.008 %noloadloss=0.23 xhl=1.803 emerghkva=21
new object=transformer.34097393-sc phases=1 buses=[34097393.3,sec_34097393.3] conns=[wye,wye] kvs=[7.62,0.24] kvas=[15,15] taps=[1,1] wdg=1 %r=0.5765 rdcohms=18.96867 wdg=2 %r=0.5765 rdcohms=0.01881696 %loadloss=1.153 %noloadloss=0.318 xhl=1.888 emerghkva=21
new object=transformer.34085489-sc phases=1 buses=[34085489.3,sec_34085489.3] conns=[wye,wye] kvs=[7.62,0.24] kvas=[15,15] taps=[1,1] wdg=1 %r=0.38195 rdcohms=12.56736 wdg=2 %r=0.38195 rdcohms=0.01246685 %loadloss=0.7639 %noloadloss=0.0851 xhl=2.1 emerghkva=21
new object=transformer.10549223-sb phases=1 buses=[10549223.2,sec_10549223.2] conns=[wye,wye] kvs=[7.62,0.24] kvas=[37.5,37.5] taps=[1,1] wdg=1 %r=0.38195 rdcohms=5.026945 wdg=2 %r=0.38195 rdcohms=0.004986739 %loadloss=0.7639 %noloadloss=0.0851 xhl=2.1 emerghkva=51.8
new object=transformer.10549263-sa phases=1 buses=[10549263.1,sec_10549263.1] conns=[wye,wye] kvs=[7.62,0.24] kvas=[25,25] taps=[1,1] wdg=1 %r=0.504 rdcohms=9.949916 wdg=2 %r=0.504 rdcohms=0.009870336 %loadloss=1.008 %noloadloss=0.23 xhl=1.803 emerghkva=35
new object=transformer.10549261-sc phases=1 buses=[10549261.3,sec_10549261.3] conns=[wye,wye] kvs=[7.62,0.24] kvas=[25,25] taps=[1,1] wdg=1 %r=0.504 rdcohms=9.949916 wdg=2 %r=0.504 rdcohms=0.009870336 %loadloss=1.008 %noloadloss=0.23 xhl=1.803 emerghkva=35
new object=transformer.34085490-sc phases=1 buses=[34085490.3,sec_34085490.3] conns=[wye,wye] kvs=[7.62,0.24] kvas=[37.5,37.5] taps=[1,1] wdg=1 %r=0.38195 rdcohms=5.026945 wdg=2 %r=0.38195 rdcohms=0.004986739 %loadloss=0.7639 %noloadloss=0.0851 xhl=2.1 emerghkva=51.8
new object=transformer.10549020-sc phases=1 buses=[10549020.3,sec_10549020.3] conns=[wye,wye] kvs=[7.62,0.24] kvas=[15,15] taps=[1,1] wdg=1 %r=0.4055 rdcohms=13.34223 wdg=2 %r=0.4055 rdcohms=0.01323552 %loadloss=0.811 %noloadloss=0.184 xhl=1.765 emerghkva=21
new object=transformer.10549018-sc phases=1 buses=[10549018.3,sec_10549018.3] conns=[wye,wye] kvs=[7.62,0.24] kvas=[25,25] taps=[1,1] wdg=1 %r=0.38195 rdcohms=7.540417 wdg=2 %r=0.38195 rdcohms=0.007480109 %loadloss=0.7639 %noloadloss=0.0851 xhl=2.1 emerghkva=35
new object=transformer.10555985-sc phases=1 buses=[10555985.3,sec_10555985.3] conns=[wye,wye] kvs=[7.62,0.24] kvas=[25,25] taps=[1,1] wdg=1 %r=0.504 rdcohms=9.949916 wdg=2 %r=0.504 rdcohms=0.009870336 %loadloss=1.008 %noloadloss=0.23 xhl=1.803 emerghkva=35
new object=transformer.20114730-sabc phases=3 buses=[20114730,sec_20114730] conns=[wye,wye] kvs=[13.2,0.48] kvas=[300,300] taps=[1,1] wdg=1 %r=0.3575 rdcohms=0.588302 wdg=2 %r=0.3575 rdcohms=0.00077792 %loadloss=0.715 %noloadloss=0.173 xhl=1.845 emerghkva=140
new object=transformer.34095659-sc phases=1 buses=[34095659.3,sec_34095659.3] conns=[wye,wye] kvs=[7.62,0.24] kvas=[25,25] taps=[1,1] wdg=1 %r=0.504 rdcohms=9.949916 wdg=2 %r=0.504 rdcohms=0.009870336 %loadloss=1.008 %noloadloss=0.23 xhl=1.803 emerghkva=35
new object=transformer.10548968-sa phases=1 buses=[10548968.1,sec_10548968.1] conns=[wye,wye] kvs=[7.62,0.24] kvas=[37.5,37.5] taps=[1,1] wdg=1 %r=0.4055 rdcohms=5.336893 wdg=2 %r=0.4055 rdcohms=0.005294208 %loadloss=0.811 %noloadloss=0.184 xhl=1.765 emerghkva=51.8
new object=transformer.10558215-sc phases=1 buses=[10558215.3,sec_10558215.3] conns=[wye,wye] kvs=[7.62,0.24] kvas=[15,15] taps=[1,1] wdg=1 %r=0.38195 rdcohms=12.56736 wdg=2 %r=0.38195 rdcohms=0.01246685 %loadloss=0.7639 %noloadloss=0.0851 xhl=2.1 emerghkva=21
new object=transformer.34095660-sc phases=1 buses=[34095660.3,sec_34095660.3] conns=[wye,wye] kvs=[7.62,0.24] kvas=[37.5,37.5] taps=[1,1] wdg=1 %r=0.38195 rdcohms=5.026945 wdg=2 %r=0.38195 rdcohms=0.004986739 %loadloss=0.7639 %noloadloss=0.0851 xhl=2.1 emerghkva=51.8
new object=transformer.34085491-sb phases=1 buses=[34085491.2,sec_34085491.2] conns=[wye,wye] kvs=[7.62,0.24] kvas=[37.5,37.5] taps=[1,1] wdg=1 %r=0.38195 rdcohms=5.026945 wdg=2 %r=0.38195 rdcohms=0.004986739 %loadloss=0.7639 %noloadloss=0.0851 xhl=2.1 emerghkva=51.8
new object=transformer.34085462-sb phases=1 buses=[34085462.2,sec_34085462.2] conns=[wye,wye] kvs=[7.62,0.24] kvas=[15,15] taps=[1,1] wdg=1 %r=0.504 rdcohms=16.58319 wdg=2 %r=0.504 rdcohms=0.01645056 %loadloss=1.008 %noloadloss=0.23 xhl=1.803 emerghkva=21
new object=transformer.10549013-sb phases=1 buses=[10549013.2,sec_10549013.2] conns=[wye,wye] kvs=[7.62,0.24] kvas=[37.5,37.5] taps=[1,1] wdg=1 %r=0.4055 rdcohms=5.336893 wdg=2 %r=0.4055 rdcohms=0.005294208 %loadloss=0.811 %noloadloss=0.184 xhl=1.765 emerghkva=51.8
new object=transformer.10549015-sb phases=1 buses=[10549015.2,sec_10549015.2] conns=[wye,wye] kvs=[7.62,0.24] kvas=[15,15] taps=[1,1] wdg=1 %r=0.38195 rdcohms=12.56736 wdg=2 %r=0.38195 rdcohms=0.01246685 %loadloss=0.7639 %noloadloss=0.0851 xhl=2.1 emerghkva=21
new object=transformer.10549309-sb phases=1 buses=[10549309.2,sec_10549309.2] conns=[wye,wye] kvs=[7.62,0.24] kvas=[37.5,37.5] taps=[1,1] wdg=1 %r=0.38195 rdcohms=5.026945 wdg=2 %r=0.38195 rdcohms=0.004986739 %loadloss=0.7639 %noloadloss=0.0851 xhl=2.1 emerghkva=51.8
new object=transformer.10549313-sb phases=1 buses=[10549313.2,sec_10549313.2] conns=[wye,wye] kvs=[7.62,0.24] kvas=[15,15] taps=[1,1] wdg=1 %r=0.4055 rdcohms=13.34223 wdg=2 %r=0.4055 rdcohms=0.01323552 %loadloss=0.811 %noloadloss=0.184 xhl=1.765 emerghkva=21
new object=transformer.10522508-sb phases=1 buses=[10522508.2,sec_10522508.2] conns=[wye,wye] kvs=[7.62,0.24] kvas=[25,25] taps=[1,1] wdg=1 %r=0.504 rdcohms=9.949916 wdg=2 %r=0.504 rdcohms=0.009870336 %loadloss=1.008 %noloadloss=0.23 xhl=1.803 emerghkva=35
new object=transformer.34095668-sb phases=1 buses=[34095668.2,sec_34095668.2] conns=[wye,wye] kvs=[7.62,0.24] kvas=[25,25] taps=[1,1] wdg=1 %r=0.504 rdcohms=9.949916 wdg=2 %r=0.504 rdcohms=0.009870336 %loadloss=1.008 %noloadloss=0.23 xhl=1.803 emerghkva=35
new object=transformer.34086016-sb phases=1 buses=[34086016.2,sec_34086016.2] conns=[wye,wye] kvs=[7.62,0.24] kvas=[25,25] taps=[1,1] wdg=1 %r=0.38195 rdcohms=7.540417 wdg=2 %r=0.38195 rdcohms=0.007480109 %loadloss=0.7639 %noloadloss=0.0851 xhl=2.1 emerghkva=35
new object=transformer.10526702-sb phases=1 buses=[10526702.2,sec_10526702.2] conns=[wye,wye] kvs=[7.62,0.24] kvas=[15,15] taps=[1,1] wdg=1 %r=0.4055 rdcohms=13.34223 wdg=2 %r=0.4055 rdcohms=0.01323552 %loadloss=0.811 %noloadloss=0.184 xhl=1.765 emerghkva=21
new object=transformer.10549312-sb phases=1 buses=[10549312.2,sec_10549312.2] conns=[wye,wye] kvs=[7.62,0.24] kvas=[15,15] taps=[1,1] wdg=1 %r=0.504 rdcohms=16.58319 wdg=2 %r=0.504 rdcohms=0.01645056 %loadloss=1.008 %noloadloss=0.23 xhl=1.803 emerghkva=21
new object=transformer.10528321-sb phases=1 buses=[10528321.2,sec_10528321.2] conns=[wye,wye] kvs=[7.62,0.24] kvas=[15,15] taps=[1,1] wdg=1 %r=0.5765 rdcohms=18.96867 wdg=2 %r=0.5765 rdcohms=0.01881696 %loadloss=1.153 %noloadloss=0.318 xhl=1.888 emerghkva=21
new object=transformer.10549310-sb phases=1 buses=[10549310.2,sec_10549310.2] conns=[wye,wye] kvs=[7.62,0.24] kvas=[25,25] taps=[1,1] wdg=1 %r=0.38195 rdcohms=7.540417 wdg=2 %r=0.38195 rdcohms=0.007480109 %loadloss=0.7639 %noloadloss=0.0851 xhl=2.1 emerghkva=35
new object=transformer.10543795-sc phases=1 buses=[10543795.3,sec_10543795.3] conns=[wye,wye] kvs=[7.62,0.24] kvas=[15,15] taps=[1,1] wdg=1 %r=0.504 rdcohms=16.58319 wdg=2 %r=0.504 rdcohms=0.01645056 %loadloss=1.008 %noloadloss=0.23 xhl=1.803 emerghkva=21
new object=transformer.10559587-sc phases=1 buses=[10559587.3,sec_10559587.3] conns=[wye,wye] kvs=[7.62,0.24] kvas=[50,50] taps=[1,1] wdg=1 %r=0.4055 rdcohms=4.002669 wdg=2 %r=0.4055 rdcohms=0.003970656 %loadloss=0.811 %noloadloss=0.184 xhl=1.765 emerghkva=70
new object=transformer.10559589-sc phases=1 buses=[10559589.3,sec_10559589.3] conns=[wye,wye] kvs=[7.62,0.24] kvas=[25,25] taps=[1,1] wdg=1 %r=0.504 rdcohms=9.949916 wdg=2 %r=0.504 rdcohms=0.009870336 %loadloss=1.008 %noloadloss=0.23 xhl=1.803 emerghkva=35
new object=transformer.10559588-sc phases=1 buses=[10559588.3,sec_10559588.3] conns=[wye,wye] kvs=[7.62,0.24] kvas=[37.5,37.5] taps=[1,1] wdg=1 %r=0.38195 rdcohms=5.026945 wdg=2 %r=0.38195 rdcohms=0.004986739 %loadloss=0.7639 %noloadloss=0.0851 xhl=2.1 emerghkva=51.8
new object=transformer.10545431-sa phases=1 buses=[10545431.1,sec_10545431.1] conns=[wye,wye] kvs=[7.62,0.24] kvas=[25,25] taps=[1,1] wdg=1 %r=0.504 rdcohms=9.949916 wdg=2 %r=0.504 rdcohms=0.009870336 %loadloss=1.008 %noloadloss=0.23 xhl=1.803 emerghkva=35
new object=transformer.34085493-sa phases=1 buses=[34085493.1,sec_34085493.1] conns=[wye,wye] kvs=[7.62,0.24] kvas=[37.5,37.5] taps=[1,1] wdg=1 %r=0.511 rdcohms=6.725406 wdg=2 %r=0.511 rdcohms=0.006671616 %loadloss=1.022 %noloadloss=0.3221 xhl=1.707 emerghkva=51.8
new object=transformer.10545502-sa phases=1 buses=[10545502.1,sec_10545502.1] conns=[wye,wye] kvs=[7.62,0.24] kvas=[50,50] taps=[1,1] wdg=1 %r=0.369 rdcohms=3.64238 wdg=2 %r=0.369 rdcohms=0.003613248 %loadloss=0.738 %noloadloss=0.1987 xhl=1.7532 emerghkva=70