clear
Set DefaultBaseFrequency=60

new circuit.ieee390 basekv=230 pu=1.05 bus1=P1 mvasc3=200000 mvasc1=2000000
 
new LineCode.Switch nphases=3 r1=1e-6 r0=1e-6 x1=1e-6 x0=1e-6 c1=0 c0=0
 
new LineSpacing.101 nconds=3 nphases=3 units=ft x=[0,10,20] h=[50,50,50]
new LineSpacing.102 nconds=3 nphases=3 units=in x=[0,3,6] h=[-48,-48,-48]
new LineSpacing.103 nconds=4 nphases=3 units=in x=[-2.1213,0,2.1213,0] h=[50.1213,48,50.1213,52.2426]
 
new WireData.397AA gmr=0.0277 rac=0.0477 diam=0.806 gmrunits=ft radunits=in runits=mi normamps=594
new CNData.1000AA gmrac=0.04683 rac=0.1214 diam=1.124 gmrunits=ft runits=mi radunits=in normamps=615
~ diacable=2.08 k=21 gmrstrand=0.00417 rstrand=0.1809 diastrand=0.1285
~ inslayer=0.25 diains=1.64
new WireData.UG500Cu gmr=0.026 rac=0.206 diam=0.814 gmrunits=ft radunits=in runits=mi normamps=430
 
new LineGeometry.Trans nconds=3 nphases=3 spacing=101 wires=[397AA 397AA 397AA]
new LineGeometry.Pri nconds=3 nphases=3 spacing=102 cncables=[1000AA 1000AA 1000AA]
new LineGeometry.Sec nconds=4 nphases=3 reduce=y spacing=103 wires=[UG500Cu UG500Cu UG500Cu UG500Cu]
 
new Line.1 bus1=P1.1.2.3 bus2=P2.1.2.3 phases=3 length=150 units=ft geometry=Trans
new Line.2 bus1=P2.1.2.3 bus2=P3.1.2.3 phases=3 length=150 units=ft geometry=Trans
new Line.3 bus1=P2.1.2.3 bus2=P7.1.2.3 phases=3 length=150 units=ft geometry=Trans
new Line.4 bus1=P6.1.2.3 bus2=P11.1.2.3 phases=3 length=50 units=ft geometry=Pri
new Line.5 bus1=P6.1.2.3 bus2=P27.1.2.3 phases=3 length=50 units=ft geometry=Pri
new Line.6 bus1=P6.1.2.3 bus2=P44.1.2.3 phases=3 length=25 units=ft geometry=Pri
new Line.7 bus1=P44.1.2.3 bus2=P45.1.2.3 phases=3 length=25 units=ft geometry=Pri
new Line.8 bus1=P44.1.2.3 bus2=P62.1.2.3 phases=3 length=25 units=ft geometry=Pri
new Line.9 bus1=P10.1.2.3 bus2=P81.1.2.3 phases=3 length=50 units=ft geometry=Pri
new Line.10 bus1=P10.1.2.3 bus2=P97.1.2.3 phases=3 length=50 units=ft geometry=Pri
new Line.11 bus1=P10.1.2.3 bus2=P116.1.2.3 phases=3 length=25 units=ft geometry=Pri
new Line.12 bus1=P116.1.2.3 bus2=P117.1.2.3 phases=3 length=25 units=ft geometry=Pri
new Line.13 bus1=P116.1.2.3 bus2=P134.1.2.3 phases=3 length=25 units=ft geometry=Pri
new Line.14 bus1=P12.1.2.3 bus2=P13.1.2.3 phases=3 length=2500 units=ft geometry=Pri
new Line.15 bus1=P13.1.2.3 bus2=P14.1.2.3 phases=3 length=100 units=ft geometry=Pri
new Line.16 bus1=P13.1.2.3 bus2=P15.1.2.3 phases=3 length=100 units=ft geometry=Pri
new Line.17 bus1=P15.1.2.3 bus2=P16.1.2.3 phases=3 length=100 units=ft geometry=Pri
new Line.18 bus1=P16.1.2.3 bus2=P17.1.2.3 phases=3 length=100 units=ft geometry=Pri
new Line.19 bus1=P15.1.2.3 bus2=P18.1.2.3 phases=3 length=100 units=ft geometry=Pri
new Line.20 bus1=P18.1.2.3 bus2=P19.1.2.3 phases=3 length=100 units=ft geometry=Pri
new Line.21 bus1=P18.1.2.3 bus2=P20.1.2.3 phases=3 length=100 units=ft geometry=Pri
new Line.22 bus1=P20.1.2.3 bus2=P21.1.2.3 phases=3 length=100 units=ft geometry=Pri
new Line.23 bus1=P21.1.2.3 bus2=P22.1.2.3 phases=3 length=100 units=ft geometry=Pri
new Line.24 bus1=P20.1.2.3 bus2=P23.1.2.3 phases=3 length=100 units=ft geometry=Pri
new Line.25 bus1=P23.1.2.3 bus2=P24.1.2.3 phases=3 length=100 units=ft geometry=Pri
new Line.26 bus1=P23.1.2.3 bus2=P25.1.2.3 phases=3 length=100 units=ft geometry=Pri
new Line.27 bus1=P25.1.2.3 bus2=P26.1.2.3 phases=3 length=100 units=ft geometry=Pri
new Line.28 bus1=P28.1.2.3 bus2=P29.1.2.3 phases=3 length=2500 units=ft geometry=Pri
new Line.29 bus1=P29.1.2.3 bus2=P30.1.2.3 phases=3 length=100 units=ft geometry=Pri
new Line.30 bus1=P29.1.2.3 bus2=P31.1.2.3 phases=3 length=100 units=ft geometry=Pri
new Line.31 bus1=P31.1.2.3 bus2=P32.1.2.3 phases=3 length=100 units=ft geometry=Pri
new Line.32 bus1=P31.1.2.3 bus2=P33.1.2.3 phases=3 length=100 units=ft geometry=Pri
new Line.33 bus1=P33.1.2.3 bus2=P34.1.2.3 phases=3 length=100 units=ft geometry=Pri
new Line.34 bus1=P33.1.2.3 bus2=P35.1.2.3 phases=3 length=100 units=ft geometry=Pri
new Line.35 bus1=P35.1.2.3 bus2=P36.1.2.3 phases=3 length=100 units=ft geometry=Pri
new Line.36 bus1=P35.1.2.3 bus2=P37.1.2.3 phases=3 length=100 units=ft geometry=Pri
new Line.37 bus1=P37.1.2.3 bus2=P38.1.2.3 phases=3 length=100 units=ft geometry=Pri
new Line.38 bus1=P37.1.2.3 bus2=P39.1.2.3 phases=3 length=100 units=ft geometry=Pri
new Line.39 bus1=P39.1.2.3 bus2=P40.1.2.3 phases=3 length=100 units=ft geometry=Pri
new Line.40 bus1=P40.1.2.3 bus2=P41.1.2.3 phases=3 length=100 units=ft geometry=Pri
new Line.41 bus1=P39.1.2.3 bus2=P42.1.2.3 phases=3 length=100 units=ft geometry=Pri
new Line.42 bus1=P42.1.2.3 bus2=P43.1.2.3 phases=3 length=100 units=ft geometry=Pri
new Line.43 bus1=P46.1.2.3 bus2=P47.1.2.3 phases=3 length=2500 units=ft geometry=Pri
new Line.44 bus1=P47.1.2.3 bus2=P48.1.2.3 phases=3 length=100 units=ft geometry=Pri
new Line.45 bus1=P47.1.2.3 bus2=P49.1.2.3 phases=3 length=100 units=ft geometry=Pri
new Line.46 bus1=P49.1.2.3 bus2=P50.1.2.3 phases=3 length=100 units=ft geometry=Pri
new Line.47 bus1=P49.1.2.3 bus2=P51.1.2.3 phases=3 length=100 units=ft geometry=Pri
new Line.48 bus1=P51.1.2.3 bus2=P52.1.2.3 phases=3 length=100 units=ft geometry=Pri
new Line.49 bus1=P51.1.2.3 bus2=P53.1.2.3 phases=3 length=100 units=ft geometry=Pri
new Line.50 bus1=P53.1.2.3 bus2=P54.1.2.3 phases=3 length=100 units=ft geometry=Pri
new Line.51 bus1=P54.1.2.3 bus2=P55.1.2.3 phases=3 length=100 units=ft geometry=Pri
new Line.52 bus1=P55.1.2.3 bus2=P56.1.2.3 phases=3 length=100 units=ft geometry=Pri
new Line.53 bus1=P53.1.2.3 bus2=P57.1.2.3 phases=3 length=100 units=ft geometry=Pri
new Line.54 bus1=P57.1.2.3 bus2=P58.1.2.3 phases=3 length=100 units=ft geometry=Pri
new Line.55 bus1=P57.1.2.3 bus2=P59.1.2.3 phases=3 length=100 units=ft geometry=Pri
new Line.56 bus1=P59.1.2.3 bus2=P60.1.2.3 phases=3 length=100 units=ft geometry=Pri
new Line.57 bus1=P60.1.2.3 bus2=P61.1.2.3 phases=3 length=100 units=ft geometry=Pri
new Line.58 bus1=P63.1.2.3 bus2=P64.1.2.3 phases=3 length=2500 units=ft geometry=Pri
new Line.59 bus1=P64.1.2.3 bus2=P65.1.2.3 phases=3 length=100 units=ft geometry=Pri
new Line.60 bus1=P64.1.2.3 bus2=P66.1.2.3 phases=3 length=100 units=ft geometry=Pri
new Line.61 bus1=P66.1.2.3 bus2=P67.1.2.3 phases=3 length=100 units=ft geometry=Pri
new Line.62 bus1=P66.1.2.3 bus2=P68.1.2.3 phases=3 length=100 units=ft geometry=Pri
new Line.63 bus1=P68.1.2.3 bus2=P69.1.2.3 phases=3 length=100 units=ft geometry=Pri
new Line.64 bus1=P68.1.2.3 bus2=P70.1.2.3 phases=3 length=100 units=ft geometry=Pri
new Line.65 bus1=P70.1.2.3 bus2=P71.1.2.3 phases=3 length=100 units=ft geometry=Pri
new Line.66 bus1=P70.1.2.3 bus2=P72.1.2.3 phases=3 length=100 units=ft geometry=Pri
new Line.67 bus1=P72.1.2.3 bus2=P73.1.2.3 phases=3 length=100 units=ft geometry=Pri
new Line.68 bus1=P73.1.2.3 bus2=P74.1.2.3 phases=3 length=100 units=ft geometry=Pri
new Line.69 bus1=P72.1.2.3 bus2=P75.1.2.3 phases=3 length=100 units=ft geometry=Pri
new Line.70 bus1=P75.1.2.3 bus2=P76.1.2.3 phases=3 length=100 units=ft geometry=Pri
new Line.71 bus1=P75.1.2.3 bus2=P77.1.2.3 phases=3 length=100 units=ft geometry=Pri
new Line.72 bus1=P77.1.2.3 bus2=P78.1.2.3 phases=3 length=100 units=ft geometry=Pri
new Line.73 bus1=P77.1.2.3 bus2=P79.1.2.3 phases=3 length=100 units=ft geometry=Pri
new Line.74 bus1=P79.1.2.3 bus2=P80.1.2.3 phases=3 length=100 units=ft geometry=Pri
new Line.75 bus1=P82.1.2.3 bus2=P83.1.2.3 phases=3 length=2500 units=ft geometry=Pri
new Line.76 bus1=P83.1.2.3 bus2=P84.1.2.3 phases=3 length=100 units=ft geometry=Pri
new Line.77 bus1=P83.1.2.3 bus2=P85.1.2.3 phases=3 length=100 units=ft geometry=Pri
new Line.78 bus1=P85.1.2.3 bus2=P86.1.2.3 phases=3 length=100 units=ft geometry=Pri
new Line.79 bus1=P86.1.2.3 bus2=P87.1.2.3 phases=3 length=100 units=ft geometry=Pri
new Line.80 bus1=P85.1.2.3 bus2=P88.1.2.3 phases=3 length=100 units=ft geometry=Pri
new Line.81 bus1=P88.1.2.3 bus2=P89.1.2.3 phases=3 length=100 units=ft geometry=Pri
new Line.82 bus1=P88.1.2.3 bus2=P90.1.2.3 phases=3 length=100 units=ft geometry=Pri
new Line.83 bus1=P90.1.2.3 bus2=P91.1.2.3 phases=3 length=100 units=ft geometry=Pri
new Line.84 bus1=P91.1.2.3 bus2=P92.1.2.3 phases=3 length=100 units=ft geometry=Pri
new Line.85 bus1=P90.1.2.3 bus2=P93.1.2.3 phases=3 length=100 units=ft geometry=Pri
new Line.86 bus1=P93.1.2.3 bus2=P94.1.2.3 phases=3 length=100 units=ft geometry=Pri
new Line.87 bus1=P93.1.2.3 bus2=P95.1.2.3 phases=3 length=100 units=ft geometry=Pri
new Line.88 bus1=P95.1.2.3 bus2=P96.1.2.3 phases=3 length=100 units=ft geometry=Pri
new Line.89 bus1=P98.1.2.3 bus2=P99.1.2.3 phases=3 length=2500 units=ft geometry=Pri
new Line.90 bus1=P99.1.2.3 bus2=P100.1.2.3 phases=3 length=100 units=ft geometry=Pri
new Line.91 bus1=P99.1.2.3 bus2=P101.1.2.3 phases=3 length=100 units=ft geometry=Pri
new Line.92 bus1=P101.1.2.3 bus2=P102.1.2.3 phases=3 length=100 units=ft geometry=Pri
new Line.93 bus1=P101.1.2.3 bus2=P103.1.2.3 phases=3 length=100 units=ft geometry=Pri
new Line.94 bus1=P103.1.2.3 bus2=P104.1.2.3 phases=3 length=100 units=ft geometry=Pri
new Line.95 bus1=P103.1.2.3 bus2=P105.1.2.3 phases=3 length=100 units=ft geometry=Pri
new Line.96 bus1=P105.1.2.3 bus2=P106.1.2.3 phases=3 length=100 units=ft geometry=Pri
new Line.97 bus1=P106.1.2.3 bus2=P107.1.2.3 phases=3 length=100 units=ft geometry=Pri
new Line.98 bus1=P105.1.2.3 bus2=P108.1.2.3 phases=3 length=100 units=ft geometry=Pri
new Line.99 bus1=P108.1.2.3 bus2=P109.1.2.3 phases=3 length=100 units=ft geometry=Pri
new Line.100 bus1=P108.1.2.3 bus2=P110.1.2.3 phases=3 length=100 units=ft geometry=Pri
new Line.101 bus1=P110.1.2.3 bus2=P111.1.2.3 phases=3 length=100 units=ft geometry=Pri
new Line.102 bus1=P110.1.2.3 bus2=P112.1.2.3 phases=3 length=100 units=ft geometry=Pri
new Line.103 bus1=P112.1.2.3 bus2=P113.1.2.3 phases=3 length=100 units=ft geometry=Pri
new Line.104 bus1=P112.1.2.3 bus2=P114.1.2.3 phases=3 length=100 units=ft geometry=Pri
new Line.105 bus1=P114.1.2.3 bus2=P115.1.2.3 phases=3 length=100 units=ft geometry=Pri
new Line.106 bus1=P118.1.2.3 bus2=P119.1.2.3 phases=3 length=2500 units=ft geometry=Pri
new Line.107 bus1=P119.1.2.3 bus2=P120.1.2.3 phases=3 length=100 units=ft geometry=Pri
new Line.108 bus1=P119.1.2.3 bus2=P121.1.2.3 phases=3 length=100 units=ft geometry=Pri
new Line.109 bus1=P121.1.2.3 bus2=P122.1.2.3 phases=3 length=100 units=ft geometry=Pri
new Line.110 bus1=P121.1.2.3 bus2=P123.1.2.3 phases=3 length=100 units=ft geometry=Pri
new Line.111 bus1=P123.1.2.3 bus2=P124.1.2.3 phases=3 length=100 units=ft geometry=Pri
new Line.112 bus1=P123.1.2.3 bus2=P125.1.2.3 phases=3 length=100 units=ft geometry=Pri
new Line.113 bus1=P125.1.2.3 bus2=P126.1.2.3 phases=3 length=100 units=ft geometry=Pri
new Line.114 bus1=P125.1.2.3 bus2=P127.1.2.3 phases=3 length=100 units=ft geometry=Pri
new Line.115 bus1=P127.1.2.3 bus2=P128.1.2.3 phases=3 length=100 units=ft geometry=Pri
new Line.116 bus1=P127.1.2.3 bus2=P129.1.2.3 phases=3 length=100 units=ft geometry=Pri
new Line.117 bus1=P129.1.2.3 bus2=P130.1.2.3 phases=3 length=100 units=ft geometry=Pri
new Line.118 bus1=P130.1.2.3 bus2=P131.1.2.3 phases=3 length=100 units=ft geometry=Pri
new Line.119 bus1=P129.1.2.3 bus2=P132.1.2.3 phases=3 length=100 units=ft geometry=Pri
new Line.120 bus1=P132.1.2.3 bus2=P133.1.2.3 phases=3 length=100 units=ft geometry=Pri
new Line.121 bus1=P135.1.2.3 bus2=P136.1.2.3 phases=3 length=2500 units=ft geometry=Pri
new Line.122 bus1=P136.1.2.3 bus2=P137.1.2.3 phases=3 length=100 units=ft geometry=Pri
new Line.123 bus1=P136.1.2.3 bus2=P138.1.2.3 phases=3 length=100 units=ft geometry=Pri
new Line.124 bus1=P138.1.2.3 bus2=P139.1.2.3 phases=3 length=100 units=ft geometry=Pri
new Line.125 bus1=P139.1.2.3 bus2=P140.1.2.3 phases=3 length=100 units=ft geometry=Pri
new Line.126 bus1=P138.1.2.3 bus2=P141.1.2.3 phases=3 length=100 units=ft geometry=Pri
new Line.127 bus1=P141.1.2.3 bus2=P142.1.2.3 phases=3 length=100 units=ft geometry=Pri
new Line.128 bus1=P141.1.2.3 bus2=P143.1.2.3 phases=3 length=100 units=ft geometry=Pri
new Line.129 bus1=P143.1.2.3 bus2=P144.1.2.3 phases=3 length=100 units=ft geometry=Pri
new Line.130 bus1=P144.1.2.3 bus2=P145.1.2.3 phases=3 length=100 units=ft geometry=Pri
new Line.131 bus1=P145.1.2.3 bus2=P146.1.2.3 phases=3 length=100 units=ft geometry=Pri
new Line.132 bus1=P143.1.2.3 bus2=P147.1.2.3 phases=3 length=100 units=ft geometry=Pri
new Line.133 bus1=P147.1.2.3 bus2=P148.1.2.3 phases=3 length=100 units=ft geometry=Pri
new Line.134 bus1=P147.1.2.3 bus2=P149.1.2.3 phases=3 length=100 units=ft geometry=Pri
new Line.135 bus1=P149.1.2.3 bus2=P150.1.2.3 phases=3 length=100 units=ft geometry=Pri
new Line.136 bus1=S194.1.2.3 bus2=S193.1.2.3 phases=3 length=10 units=ft geometry=Sec
  new Line.136_2 bus1=S194.1.2.3 bus2=S193.1.2.3 phases=3 length=10 units=ft geometry=Sec
  new Line.136_3 bus1=S194.1.2.3 bus2=S193.1.2.3 phases=3 length=10 units=ft geometry=Sec
  new Line.136_4 bus1=S194.1.2.3 bus2=S193.1.2.3 phases=3 length=10 units=ft geometry=Sec
  new Line.136_5 bus1=S194.1.2.3 bus2=S193.1.2.3 phases=3 length=10 units=ft geometry=Sec
new Line.137 bus1=S195.1.2.3 bus2=S193.1.2.3 phases=3 length=10 units=ft geometry=Sec
  new Line.137_2 bus1=S195.1.2.3 bus2=S193.1.2.3 phases=3 length=10 units=ft geometry=Sec
  new Line.137_3 bus1=S195.1.2.3 bus2=S193.1.2.3 phases=3 length=10 units=ft geometry=Sec
  new Line.137_4 bus1=S195.1.2.3 bus2=S193.1.2.3 phases=3 length=10 units=ft geometry=Sec
  new Line.137_5 bus1=S195.1.2.3 bus2=S193.1.2.3 phases=3 length=10 units=ft geometry=Sec
new Line.138 bus1=S199.1.2.3 bus2=S198.1.2.3 phases=3 length=10 units=ft geometry=Sec
  new Line.138_2 bus1=S199.1.2.3 bus2=S198.1.2.3 phases=3 length=10 units=ft geometry=Sec
  new Line.138_3 bus1=S199.1.2.3 bus2=S198.1.2.3 phases=3 length=10 units=ft geometry=Sec
  new Line.138_4 bus1=S199.1.2.3 bus2=S198.1.2.3 phases=3 length=10 units=ft geometry=Sec
  new Line.138_5 bus1=S199.1.2.3 bus2=S198.1.2.3 phases=3 length=10 units=ft geometry=Sec
new Line.139 bus1=S200.1.2.3 bus2=S198.1.2.3 phases=3 length=10 units=ft geometry=Sec
  new Line.139_2 bus1=S200.1.2.3 bus2=S198.1.2.3 phases=3 length=10 units=ft geometry=Sec
  new Line.139_3 bus1=S200.1.2.3 bus2=S198.1.2.3 phases=3 length=10 units=ft geometry=Sec
  new Line.139_4 bus1=S200.1.2.3 bus2=S198.1.2.3 phases=3 length=10 units=ft geometry=Sec
  new Line.139_5 bus1=S200.1.2.3 bus2=S198.1.2.3 phases=3 length=10 units=ft geometry=Sec
new Line.140 bus1=S204.1.2.3 bus2=S203.1.2.3 phases=3 length=10 units=ft geometry=Sec
  new Line.140_2 bus1=S204.1.2.3 bus2=S203.1.2.3 phases=3 length=10 units=ft geometry=Sec
  new Line.140_3 bus1=S204.1.2.3 bus2=S203.1.2.3 phases=3 length=10 units=ft geometry=Sec
  new Line.140_4 bus1=S204.1.2.3 bus2=S203.1.2.3 phases=3 length=10 units=ft geometry=Sec
  new Line.140_5 bus1=S204.1.2.3 bus2=S203.1.2.3 phases=3 length=10 units=ft geometry=Sec
new Line.141 bus1=S205.1.2.3 bus2=S203.1.2.3 phases=3 length=10 units=ft geometry=Sec
  new Line.141_2 bus1=S205.1.2.3 bus2=S203.1.2.3 phases=3 length=10 units=ft geometry=Sec
  new Line.141_3 bus1=S205.1.2.3 bus2=S203.1.2.3 phases=3 length=10 units=ft geometry=Sec
  new Line.141_4 bus1=S205.1.2.3 bus2=S203.1.2.3 phases=3 length=10 units=ft geometry=Sec
  new Line.141_5 bus1=S205.1.2.3 bus2=S203.1.2.3 phases=3 length=10 units=ft geometry=Sec
new Line.142 bus1=S206.1.2.3 bus2=S203.1.2.3 phases=3 length=10 units=ft geometry=Sec
  new Line.142_2 bus1=S206.1.2.3 bus2=S203.1.2.3 phases=3 length=10 units=ft geometry=Sec
  new Line.142_3 bus1=S206.1.2.3 bus2=S203.1.2.3 phases=3 length=10 units=ft geometry=Sec
  new Line.142_4 bus1=S206.1.2.3 bus2=S203.1.2.3 phases=3 length=10 units=ft geometry=Sec
  new Line.142_5 bus1=S206.1.2.3 bus2=S203.1.2.3 phases=3 length=10 units=ft geometry=Sec
new Line.143 bus1=S211.1.2.3 bus2=S210.1.2.3 phases=3 length=10 units=ft geometry=Sec
  new Line.143_2 bus1=S211.1.2.3 bus2=S210.1.2.3 phases=3 length=10 units=ft geometry=Sec
  new Line.143_3 bus1=S211.1.2.3 bus2=S210.1.2.3 phases=3 length=10 units=ft geometry=Sec
  new Line.143_4 bus1=S211.1.2.3 bus2=S210.1.2.3 phases=3 length=10 units=ft geometry=Sec
  new Line.143_5 bus1=S211.1.2.3 bus2=S210.1.2.3 phases=3 length=10 units=ft geometry=Sec
new Line.144 bus1=S212.1.2.3 bus2=S210.1.2.3 phases=3 length=10 units=ft geometry=Sec
  new Line.144_2 bus1=S212.1.2.3 bus2=S210.1.2.3 phases=3 length=10 units=ft geometry=Sec
  new Line.144_3 bus1=S212.1.2.3 bus2=S210.1.2.3 phases=3 length=10 units=ft geometry=Sec
  new Line.144_4 bus1=S212.1.2.3 bus2=S210.1.2.3 phases=3 length=10 units=ft geometry=Sec
  new Line.144_5 bus1=S212.1.2.3 bus2=S210.1.2.3 phases=3 length=10 units=ft geometry=Sec
new Line.145 bus1=S213.1.2.3 bus2=S210.1.2.3 phases=3 length=10 units=ft geometry=Sec
  new Line.145_2 bus1=S213.1.2.3 bus2=S210.1.2.3 phases=3 length=10 units=ft geometry=Sec
  new Line.145_3 bus1=S213.1.2.3 bus2=S210.1.2.3 phases=3 length=10 units=ft geometry=Sec
  new Line.145_4 bus1=S213.1.2.3 bus2=S210.1.2.3 phases=3 length=10 units=ft geometry=Sec
  new Line.145_5 bus1=S213.1.2.3 bus2=S210.1.2.3 phases=3 length=10 units=ft geometry=Sec
new Line.146 bus1=S218.1.2.3 bus2=S217.1.2.3 phases=3 length=10 units=ft geometry=Sec
  new Line.146_2 bus1=S218.1.2.3 bus2=S217.1.2.3 phases=3 length=10 units=ft geometry=Sec
  new Line.146_3 bus1=S218.1.2.3 bus2=S217.1.2.3 phases=3 length=10 units=ft geometry=Sec
  new Line.146_4 bus1=S218.1.2.3 bus2=S217.1.2.3 phases=3 length=10 units=ft geometry=Sec
  new Line.146_5 bus1=S218.1.2.3 bus2=S217.1.2.3 phases=3 length=10 units=ft geometry=Sec
new Line.147 bus1=S219.1.2.3 bus2=S217.1.2.3 phases=3 length=10 units=ft geometry=Sec
  new Line.147_2 bus1=S219.1.2.3 bus2=S217.1.2.3 phases=3 length=10 units=ft geometry=Sec
  new Line.147_3 bus1=S219.1.2.3 bus2=S217.1.2.3 phases=3 length=10 units=ft geometry=Sec
  new Line.147_4 bus1=S219.1.2.3 bus2=S217.1.2.3 phases=3 length=10 units=ft geometry=Sec
  new Line.147_5 bus1=S219.1.2.3 bus2=S217.1.2.3 phases=3 length=10 units=ft geometry=Sec
new Line.148 bus1=S220.1.2.3 bus2=S217.1.2.3 phases=3 length=10 units=ft geometry=Sec
  new Line.148_2 bus1=S220.1.2.3 bus2=S217.1.2.3 phases=3 length=10 units=ft geometry=Sec
  new Line.148_3 bus1=S220.1.2.3 bus2=S217.1.2.3 phases=3 length=10 units=ft geometry=Sec
  new Line.148_4 bus1=S220.1.2.3 bus2=S217.1.2.3 phases=3 length=10 units=ft geometry=Sec
  new Line.148_5 bus1=S220.1.2.3 bus2=S217.1.2.3 phases=3 length=10 units=ft geometry=Sec
new Line.149 bus1=S225.1.2.3 bus2=S224.1.2.3 phases=3 length=10 units=ft geometry=Sec
  new Line.149_2 bus1=S225.1.2.3 bus2=S224.1.2.3 phases=3 length=10 units=ft geometry=Sec
  new Line.149_3 bus1=S225.1.2.3 bus2=S224.1.2.3 phases=3 length=10 units=ft geometry=Sec
  new Line.149_4 bus1=S225.1.2.3 bus2=S224.1.2.3 phases=3 length=10 units=ft geometry=Sec
  new Line.149_5 bus1=S225.1.2.3 bus2=S224.1.2.3 phases=3 length=10 units=ft geometry=Sec
new Line.150 bus1=S226.1.2.3 bus2=S224.1.2.3 phases=3 length=10 units=ft geometry=Sec
  new Line.150_2 bus1=S226.1.2.3 bus2=S224.1.2.3 phases=3 length=10 units=ft geometry=Sec
  new Line.150_3 bus1=S226.1.2.3 bus2=S224.1.2.3 phases=3 length=10 units=ft geometry=Sec
  new Line.150_4 bus1=S226.1.2.3 bus2=S224.1.2.3 phases=3 length=10 units=ft geometry=Sec
  new Line.150_5 bus1=S226.1.2.3 bus2=S224.1.2.3 phases=3 length=10 units=ft geometry=Sec
new Line.151 bus1=S227.1.2.3 bus2=S224.1.2.3 phases=3 length=10 units=ft geometry=Sec
  new Line.151_2 bus1=S227.1.2.3 bus2=S224.1.2.3 phases=3 length=10 units=ft geometry=Sec
  new Line.151_3 bus1=S227.1.2.3 bus2=S224.1.2.3 phases=3 length=10 units=ft geometry=Sec
  new Line.151_4 bus1=S227.1.2.3 bus2=S224.1.2.3 phases=3 length=10 units=ft geometry=Sec
  new Line.151_5 bus1=S227.1.2.3 bus2=S224.1.2.3 phases=3 length=10 units=ft geometry=Sec
new Line.152 bus1=S232.1.2.3 bus2=S231.1.2.3 phases=3 length=10 units=ft geometry=Sec
  new Line.152_2 bus1=S232.1.2.3 bus2=S231.1.2.3 phases=3 length=10 units=ft geometry=Sec
  new Line.152_3 bus1=S232.1.2.3 bus2=S231.1.2.3 phases=3 length=10 units=ft geometry=Sec
  new Line.152_4 bus1=S232.1.2.3 bus2=S231.1.2.3 phases=3 length=10 units=ft geometry=Sec
  new Line.152_5 bus1=S232.1.2.3 bus2=S231.1.2.3 phases=3 length=10 units=ft geometry=Sec
new Line.153 bus1=S233.1.2.3 bus2=S231.1.2.3 phases=3 length=10 units=ft geometry=Sec
  new Line.153_2 bus1=S233.1.2.3 bus2=S231.1.2.3 phases=3 length=10 units=ft geometry=Sec
  new Line.153_3 bus1=S233.1.2.3 bus2=S231.1.2.3 phases=3 length=10 units=ft geometry=Sec
  new Line.153_4 bus1=S233.1.2.3 bus2=S231.1.2.3 phases=3 length=10 units=ft geometry=Sec
  new Line.153_5 bus1=S233.1.2.3 bus2=S231.1.2.3 phases=3 length=10 units=ft geometry=Sec
new Line.154 bus1=S237.1.2.3 bus2=S236.1.2.3 phases=3 length=10 units=ft geometry=Sec
  new Line.154_2 bus1=S237.1.2.3 bus2=S236.1.2.3 phases=3 length=10 units=ft geometry=Sec
  new Line.154_3 bus1=S237.1.2.3 bus2=S236.1.2.3 phases=3 length=10 units=ft geometry=Sec
  new Line.154_4 bus1=S237.1.2.3 bus2=S236.1.2.3 phases=3 length=10 units=ft geometry=Sec
  new Line.154_5 bus1=S237.1.2.3 bus2=S236.1.2.3 phases=3 length=10 units=ft geometry=Sec
new Line.155 bus1=S239.1.2.3 bus2=S236.1.2.3 phases=3 length=10 units=ft geometry=Sec
  new Line.155_2 bus1=S239.1.2.3 bus2=S236.1.2.3 phases=3 length=10 units=ft geometry=Sec
  new Line.155_3 bus1=S239.1.2.3 bus2=S236.1.2.3 phases=3 length=10 units=ft geometry=Sec
  new Line.155_4 bus1=S239.1.2.3 bus2=S236.1.2.3 phases=3 length=10 units=ft geometry=Sec
  new Line.155_5 bus1=S239.1.2.3 bus2=S236.1.2.3 phases=3 length=10 units=ft geometry=Sec
new Line.156 bus1=S1.1.2.3 bus2=S2.1.2.3 phases=3 length=100 units=ft geometry=Sec
  new Line.156_2 bus1=S1.1.2.3 bus2=S2.1.2.3 phases=3 length=100 units=ft geometry=Sec
  new Line.156_3 bus1=S1.1.2.3 bus2=S2.1.2.3 phases=3 length=100 units=ft geometry=Sec
  new Line.156_4 bus1=S1.1.2.3 bus2=S2.1.2.3 phases=3 length=100 units=ft geometry=Sec
  new Line.156_5 bus1=S1.1.2.3 bus2=S2.1.2.3 phases=3 length=100 units=ft geometry=Sec
  new Line.156_6 bus1=S1.1.2.3 bus2=S2.1.2.3 phases=3 length=100 units=ft geometry=Sec
new Line.157 bus1=S2.1.2.3 bus2=S3.1.2.3 phases=3 length=25 units=ft geometry=Sec
  new Line.157_2 bus1=S2.1.2.3 bus2=S3.1.2.3 phases=3 length=25 units=ft geometry=Sec
  new Line.157_3 bus1=S2.1.2.3 bus2=S3.1.2.3 phases=3 length=25 units=ft geometry=Sec
  new Line.157_4 bus1=S2.1.2.3 bus2=S3.1.2.3 phases=3 length=25 units=ft geometry=Sec
  new Line.157_5 bus1=S2.1.2.3 bus2=S3.1.2.3 phases=3 length=25 units=ft geometry=Sec
  new Line.157_6 bus1=S2.1.2.3 bus2=S3.1.2.3 phases=3 length=25 units=ft geometry=Sec
new Line.158 bus1=S3.1.2.3 bus2=S4.1.2.3 phases=3 length=25 units=ft geometry=Sec
  new Line.158_2 bus1=S3.1.2.3 bus2=S4.1.2.3 phases=3 length=25 units=ft geometry=Sec
  new Line.158_3 bus1=S3.1.2.3 bus2=S4.1.2.3 phases=3 length=25 units=ft geometry=Sec
  new Line.158_4 bus1=S3.1.2.3 bus2=S4.1.2.3 phases=3 length=25 units=ft geometry=Sec
  new Line.158_5 bus1=S3.1.2.3 bus2=S4.1.2.3 phases=3 length=25 units=ft geometry=Sec
  new Line.158_6 bus1=S3.1.2.3 bus2=S4.1.2.3 phases=3 length=25 units=ft geometry=Sec
new Line.159 bus1=S4.1.2.3 bus2=S5.1.2.3 phases=3 length=100 units=ft geometry=Sec
  new Line.159_2 bus1=S4.1.2.3 bus2=S5.1.2.3 phases=3 length=100 units=ft geometry=Sec
  new Line.159_3 bus1=S4.1.2.3 bus2=S5.1.2.3 phases=3 length=100 units=ft geometry=Sec
  new Line.159_4 bus1=S4.1.2.3 bus2=S5.1.2.3 phases=3 length=100 units=ft geometry=Sec
  new Line.159_5 bus1=S4.1.2.3 bus2=S5.1.2.3 phases=3 length=100 units=ft geometry=Sec
  new Line.159_6 bus1=S4.1.2.3 bus2=S5.1.2.3 phases=3 length=100 units=ft geometry=Sec
new Line.160 bus1=S5.1.2.3 bus2=S6.1.2.3 phases=3 length=100 units=ft geometry=Sec
  new Line.160_2 bus1=S5.1.2.3 bus2=S6.1.2.3 phases=3 length=100 units=ft geometry=Sec
  new Line.160_3 bus1=S5.1.2.3 bus2=S6.1.2.3 phases=3 length=100 units=ft geometry=Sec
  new Line.160_4 bus1=S5.1.2.3 bus2=S6.1.2.3 phases=3 length=100 units=ft geometry=Sec
  new Line.160_5 bus1=S5.1.2.3 bus2=S6.1.2.3 phases=3 length=100 units=ft geometry=Sec
  new Line.160_6 bus1=S5.1.2.3 bus2=S6.1.2.3 phases=3 length=100 units=ft geometry=Sec
new Line.161 bus1=S6.1.2.3 bus2=S7.1.2.3 phases=3 length=100 units=ft geometry=Sec
  new Line.161_2 bus1=S6.1.2.3 bus2=S7.1.2.3 phases=3 length=100 units=ft geometry=Sec
  new Line.161_3 bus1=S6.1.2.3 bus2=S7.1.2.3 phases=3 length=100 units=ft geometry=Sec
  new Line.161_4 bus1=S6.1.2.3 bus2=S7.1.2.3 phases=3 length=100 units=ft geometry=Sec
  new Line.161_5 bus1=S6.1.2.3 bus2=S7.1.2.3 phases=3 length=100 units=ft geometry=Sec
  new Line.161_6 bus1=S6.1.2.3 bus2=S7.1.2.3 phases=3 length=100 units=ft geometry=Sec
new Line.162 bus1=S7.1.2.3 bus2=S8.1.2.3 phases=3 length=25 units=ft geometry=Sec
  new Line.162_2 bus1=S7.1.2.3 bus2=S8.1.2.3 phases=3 length=25 units=ft geometry=Sec
  new Line.162_3 bus1=S7.1.2.3 bus2=S8.1.2.3 phases=3 length=25 units=ft geometry=Sec
  new Line.162_4 bus1=S7.1.2.3 bus2=S8.1.2.3 phases=3 length=25 units=ft geometry=Sec
  new Line.162_5 bus1=S7.1.2.3 bus2=S8.1.2.3 phases=3 length=25 units=ft geometry=Sec
  new Line.162_6 bus1=S7.1.2.3 bus2=S8.1.2.3 phases=3 length=25 units=ft geometry=Sec
new Line.163 bus1=S8.1.2.3 bus2=S9.1.2.3 phases=3 length=25 units=ft geometry=Sec
  new Line.163_2 bus1=S8.1.2.3 bus2=S9.1.2.3 phases=3 length=25 units=ft geometry=Sec
  new Line.163_3 bus1=S8.1.2.3 bus2=S9.1.2.3 phases=3 length=25 units=ft geometry=Sec
  new Line.163_4 bus1=S8.1.2.3 bus2=S9.1.2.3 phases=3 length=25 units=ft geometry=Sec
  new Line.163_5 bus1=S8.1.2.3 bus2=S9.1.2.3 phases=3 length=25 units=ft geometry=Sec
  new Line.163_6 bus1=S8.1.2.3 bus2=S9.1.2.3 phases=3 length=25 units=ft geometry=Sec
new Line.164 bus1=S9.1.2.3 bus2=S10.1.2.3 phases=3 length=100 units=ft geometry=Sec
  new Line.164_2 bus1=S9.1.2.3 bus2=S10.1.2.3 phases=3 length=100 units=ft geometry=Sec
  new Line.164_3 bus1=S9.1.2.3 bus2=S10.1.2.3 phases=3 length=100 units=ft geometry=Sec
  new Line.164_4 bus1=S9.1.2.3 bus2=S10.1.2.3 phases=3 length=100 units=ft geometry=Sec
  new Line.164_5 bus1=S9.1.2.3 bus2=S10.1.2.3 phases=3 length=100 units=ft geometry=Sec
  new Line.164_6 bus1=S9.1.2.3 bus2=S10.1.2.3 phases=3 length=100 units=ft geometry=Sec
new Line.165 bus1=S10.1.2.3 bus2=S11.1.2.3 phases=3 length=100 units=ft geometry=Sec
  new Line.165_2 bus1=S10.1.2.3 bus2=S11.1.2.3 phases=3 length=100 units=ft geometry=Sec
  new Line.165_3 bus1=S10.1.2.3 bus2=S11.1.2.3 phases=3 length=100 units=ft geometry=Sec
  new Line.165_4 bus1=S10.1.2.3 bus2=S11.1.2.3 phases=3 length=100 units=ft geometry=Sec
  new Line.165_5 bus1=S10.1.2.3 bus2=S11.1.2.3 phases=3 length=100 units=ft geometry=Sec
  new Line.165_6 bus1=S10.1.2.3 bus2=S11.1.2.3 phases=3 length=100 units=ft geometry=Sec
new Line.166 bus1=S11.1.2.3 bus2=S12.1.2.3 phases=3 length=100 units=ft geometry=Sec
  new Line.166_2 bus1=S11.1.2.3 bus2=S12.1.2.3 phases=3 length=100 units=ft geometry=Sec
  new Line.166_3 bus1=S11.1.2.3 bus2=S12.1.2.3 phases=3 length=100 units=ft geometry=Sec
  new Line.166_4 bus1=S11.1.2.3 bus2=S12.1.2.3 phases=3 length=100 units=ft geometry=Sec
  new Line.166_5 bus1=S11.1.2.3 bus2=S12.1.2.3 phases=3 length=100 units=ft geometry=Sec
  new Line.166_6 bus1=S11.1.2.3 bus2=S12.1.2.3 phases=3 length=100 units=ft geometry=Sec
new Line.167 bus1=S12.1.2.3 bus2=S13.1.2.3 phases=3 length=25 units=ft geometry=Sec
  new Line.167_2 bus1=S12.1.2.3 bus2=S13.1.2.3 phases=3 length=25 units=ft geometry=Sec
  new Line.167_3 bus1=S12.1.2.3 bus2=S13.1.2.3 phases=3 length=25 units=ft geometry=Sec
  new Line.167_4 bus1=S12.1.2.3 bus2=S13.1.2.3 phases=3 length=25 units=ft geometry=Sec
  new Line.167_5 bus1=S12.1.2.3 bus2=S13.1.2.3 phases=3 length=25 units=ft geometry=Sec
  new Line.167_6 bus1=S12.1.2.3 bus2=S13.1.2.3 phases=3 length=25 units=ft geometry=Sec
new Line.168 bus1=S13.1.2.3 bus2=S14.1.2.3 phases=3 length=25 units=ft geometry=Sec
  new Line.168_2 bus1=S13.1.2.3 bus2=S14.1.2.3 phases=3 length=25 units=ft geometry=Sec
  new Line.168_3 bus1=S13.1.2.3 bus2=S14.1.2.3 phases=3 length=25 units=ft geometry=Sec
  new Line.168_4 bus1=S13.1.2.3 bus2=S14.1.2.3 phases=3 length=25 units=ft geometry=Sec
  new Line.168_5 bus1=S13.1.2.3 bus2=S14.1.2.3 phases=3 length=25 units=ft geometry=Sec
  new Line.168_6 bus1=S13.1.2.3 bus2=S14.1.2.3 phases=3 length=25 units=ft geometry=Sec
new Line.169 bus1=S14.1.2.3 bus2=S15.1.2.3 phases=3 length=100 units=ft geometry=Sec
  new Line.169_2 bus1=S14.1.2.3 bus2=S15.1.2.3 phases=3 length=100 units=ft geometry=Sec
  new Line.169_3 bus1=S14.1.2.3 bus2=S15.1.2.3 phases=3 length=100 units=ft geometry=Sec
  new Line.169_4 bus1=S14.1.2.3 bus2=S15.1.2.3 phases=3 length=100 units=ft geometry=Sec
  new Line.169_5 bus1=S14.1.2.3 bus2=S15.1.2.3 phases=3 length=100 units=ft geometry=Sec
  new Line.169_6 bus1=S14.1.2.3 bus2=S15.1.2.3 phases=3 length=100 units=ft geometry=Sec
new Line.170 bus1=S15.1.2.3 bus2=S16.1.2.3 phases=3 length=100 units=ft geometry=Sec
  new Line.170_2 bus1=S15.1.2.3 bus2=S16.1.2.3 phases=3 length=100 units=ft geometry=Sec
  new Line.170_3 bus1=S15.1.2.3 bus2=S16.1.2.3 phases=3 length=100 units=ft geometry=Sec
  new Line.170_4 bus1=S15.1.2.3 bus2=S16.1.2.3 phases=3 length=100 units=ft geometry=Sec
  new Line.170_5 bus1=S15.1.2.3 bus2=S16.1.2.3 phases=3 length=100 units=ft geometry=Sec
  new Line.170_6 bus1=S15.1.2.3 bus2=S16.1.2.3 phases=3 length=100 units=ft geometry=Sec
new Line.171 bus1=S16.1.2.3 bus2=S17.1.2.3 phases=3 length=100 units=ft geometry=Sec
  new Line.171_2 bus1=S16.1.2.3 bus2=S17.1.2.3 phases=3 length=100 units=ft geometry=Sec
  new Line.171_3 bus1=S16.1.2.3 bus2=S17.1.2.3 phases=3 length=100 units=ft geometry=Sec
  new Line.171_4 bus1=S16.1.2.3 bus2=S17.1.2.3 phases=3 length=100 units=ft geometry=Sec