! Iowa 240-node test system .dss file
! clean as of 16 SEP 2020 by Lisa Slaughter

! SOURCE: http://wzy.ece.iastate.edu/Testsystem.html

Clear
New object=Circuit.240_node_test_system


!! From Vsource.dss
Edit object=Vsource.source bus1=eq_source_bus.1.2.3 phases=3 angle=0.00000 pu=1.00000 basekv=69.00000 R1=4.5426 X1=10.527 R0=7.3655 X0=24.505


!! From LineCode.DSS
New object=LineCode.oh_3p_type1 nphases=3 units=mi rmatrix=[0.61592700,0.17092700,0.17092700|0.17092700,0.61592700,0.17092700|0.17092700,0.17092700,0.61592700] xmatrix=[1.20938900,0.43318800,0.43318800|0.43318800,1.20938900,0.43318800|0.43318800,0.43318800,1.20938900]
New object=LineCode.oh_2p_type2 nphases=2 units=mi rmatrix=[0.58925500,0.16949500|0.16949500,0.58925500] xmatrix=[1.07485600,0.38787600|0.38787600,1.07485600]
New object=LineCode.oh_1p_type2 nphases=1 units=mi rmatrix=[0.59247300] xmatrix=[1.06582100]
New object=LineCode.oh_3p_type5 nphases=3 units=mi rmatrix=[1.19160200,0.23484900,0.23484900|0.23484900,1.19160200,0.23484900|0.23484900,0.23484900,1.19160200] xmatrix=[1.20945200,0.48926300,0.48926300|0.48926300,1.20945200,0.48926300|0.48926300,0.48926300,1.20945200]
New object=LineCode.oh_1p_type5 nphases=1 units=mi rmatrix=[1.19426000] xmatrix=[1.20542000]
New object=LineCode.ug_3p_type1 nphases=3 units=mi rmatrix=[1.00942300,0.40973200,0.40973200|0.40973200,1.00942300,0.40973200|0.40973200,0.40973200,1.00942300] xmatrix=[0.49316400,0.10084900,0.10084900|0.10084900,0.49316400,0.10084900|0.10084900,0.10084900,0.49316400] cmatrix=[286.10159300,0.00000000,0.00000000|0.00000000,286.10159300,0.00000000|0.00000000,0.00000000,286.10159300]
New object=LineCode.ug_3p_type2 nphases=3 units=mi rmatrix=[1.69257700,0.55008700,0.55008700|0.55008700,1.69257700,0.55008700|0.55008700,0.55008700,1.69257700] xmatrix=[0.79175600,0.34493100,0.34493100|0.34493100,0.79175600,0.34493100|0.34493100,0.34493100,0.79175600] cmatrix=[207.88053900,0.00000000,0.00000000|0.00000000,207.88053900,0.00000000|0.00000000,0.00000000,207.88053900]
New object=LineCode.ug_1p_type2 nphases=1 units=mi rmatrix=[1.67533800] xmatrix=[1.21000700] cmatrix=[207.88053900]


!! From LoadShape.DSS
New object=LoadShape.default npts=24 interval=1 mult=[0.677,0.6256,0.6087,0.5833,0.58028,0.6025,0.657,0.7477,0.832,0.88,0.94,0.989,0.985,0.98,0.9898,0.999,1,0.958,0.936,0.913,0.876,0.876,0.828,0.756]


!! From GrowthShape.DSS
!! This is a default setting imposed by opendss. Not defined in original iowa 240 definition,so removed it from here
! New object=GrowthShape.default npts=2 year=(1,20,) mult=(1.025,1.025,)


!! From TCC_Curve.DSS
!! This is a default setting imposed by opendss. Not defined in original iowa 240 definition,so removed it from here
! New object=TCC_Curve.a npts=5 C_array=[1,2.5,4.5,8,14] T_array=[0.15,0.07,0.05,0.045,0.045]
! New object=TCC_Curve.d npts=5 C_array=[1,2.5,4.5,8,14] T_array=[6,0.7,0.2,0.06,0.02]
! New object=TCC_Curve.tlink npts=7 C_array=[2,2.1,3,4,6,22,50] T_array=[300,100,10.1,4,1.4,0.1,0.02]
! New object=TCC_Curve.klink npts=6 C_array=[2,2.2,3,4,6,30] T_array=[300,20,4,1.3,0.41,0.02]
! New object=TCC_Curve.uv1547 npts=2 C_array=[0.5,0.9] T_array=[0.166,2]
! New object=TCC_Curve.ov1547 npts=2 C_array=[1.1,1.2] T_array=[2,0.166]
! New object=TCC_Curve.mod_inv npts=15 C_array=[1.1,1.3,1.5,2,3,4,5,6,7,8,9,10,20,50,100] T_array=[27.1053,9.9029,6.439,3.8032,2.4322,1.9458,1.6883,1.5255,1.4117,1.3267,1.2604,1.2068,0.9481,0.7468,0.6478]
! New object=TCC_Curve.very_inv npts=15 C_array=[1.1,1.3,1.5,2,3,4,5,6,7,8,9,10,20,50,100] T_array=[93.872,28.9113,16.179,7.0277,2.9423,1.7983,1.3081,1.0513,0.8995,0.8023,0.7361,0.6891,0.5401,0.4988,0.493]
! New object=TCC_Curve.ext_inv npts=15 C_array=[1.1,1.3,1.5,2,3,4,5,6,7,8,9,10,20,50,100] T_array=[134.407,40.9913,22.6817,9.5217,3.6467,2.0017,1.2967,0.9274,0.7092,0.5693,0.4742,0.4065,0.1924,0.133,0.1245]
! New object=TCC_Curve.definite npts=3 C_array=[1,1.001,100] T_array=[300,1,1]


!! From Spectrum.DSS
!! This is a default setting imposed by opendss. Not defined in original iowa 240 definition,so removed it from here
! New object=Spectrum.default NumHarm=7 harmonic=(1,3,5,7,9,11,13,) %mag=(100,33,20,14,11,9,7,) angle=(0,0,0,0,0,0,0,)
! New object=Spectrum.defaultload NumHarm=7 harmonic=(1,3,5,7,9,11,13,) %mag=(100,1.5,20,14,1,9,7,) angle=(0,180,180,180,180,180,180,)
! New object=Spectrum.defaultgen NumHarm=7 harmonic=(1,3,5,7,9,11,13,) %mag=(100,5,3,1.5,1,0.7,0.5,) angle=(0,0,0,0,0,0,0,)
! New object=Spectrum.defaultvsource NumHarm=1 harmonic=(1,) %mag=(100,) angle=(0,)
! New object=Spectrum.linear NumHarm=1 harmonic=(1,) %mag=(100,) angle=(0,)
! New object=Spectrum.pwm6 NumHarm=13 harmonic=(1,3,5,7,9,11,13,15,17,19,21,23,25,) %mag=(100,4.4,76.5,62.7,2.9,24.8,12.7,0.5,7.1,8.4,0.9,4.4,3.3,) angle=(-103, -5,28, -180, -33, -59,79,36, -253, -124,3, -30,86,)
! New object=Spectrum.dc6 NumHarm=10 harmonic=(1,3,5,7,9,11,13,15,17,19,) %mag=(100,1.2,33.6,1.6,0.4,8.7,1.2,0.3,4.5,1.3,) angle=(-75,28,156,29, -91,49,54,148, -57, -46,)


!! From Line.DSS
New object=Line.l_1001_1002 phases=3 bus1=bus1001.1.2.3 bus2=bus1002.1.2.3 length=2967 units=ft linecode=UG_3p_type1 Seasons=1 Ratings=[400,] normamps=400 emergamps=600
New object=Line.l_1002_1003 phases=3 bus1=bus1002.1.2.3 bus2=bus1003.1.2.3 length=372 units=ft linecode=UG_3p_type2 Seasons=1 Ratings=[400,] normamps=400 emergamps=600
New object=Line.l_1002_1004 phases=3 bus1=bus1002.1.2.3 bus2=bus1004.1.2.3 length=638 units=ft linecode=OH_3p_type1 Seasons=1 Ratings=[400,] normamps=400 emergamps=600
New object=Line.l_1004_1005 phases=3 bus1=bus1004.1.2.3 bus2=bus1005.1.2.3 length=394 units=ft linecode=OH_3p_type1 Seasons=1 Ratings=[400,] normamps=400 emergamps=600
New object=Line.l_1005_1006 phases=3 bus1=bus1005.1.2.3 bus2=bus1006.1.2.3 length=1049 units=ft linecode=OH_3p_type1 Seasons=1 Ratings=[400,] normamps=400 emergamps=600
New object=Line.l_1006_1007 phases=2 bus1=bus1006.1.2 bus2=bus1007.1.2 length=2000 units=ft linecode=OH_2p_type2 Seasons=1 Ratings=[400,] normamps=400 emergamps=600
New object=Line.l_1006_1008 phases=3 bus1=bus1006.1.2.3 bus2=bus1008.1.2.3 length=454 units=ft linecode=OH_3p_type1 Seasons=1 Ratings=[400,] normamps=400 emergamps=600
New object=Line.l_1008_1009 phases=3 bus1=bus1008.1.2.3 bus2=bus1009.1.2.3 length=1082 units=ft linecode=OH_3p_type1 Seasons=1 Ratings=[400,] normamps=400 emergamps=600
New object=Line.l_1009_1010 phases=3 bus1=bus1009.1.2.3 bus2=bus1010.1.2.3 length=169 units=ft linecode=OH_3p_type1 Seasons=1 Ratings=[400,] normamps=400 emergamps=600
New object=Line.l_1009_1011 phases=3 bus1=bus1009.1.2.3 bus2=bus1011.1.2.3 length=60 units=ft linecode=UG_3p_type2 Seasons=1 Ratings=[400,] normamps=400 emergamps=600
New object=Line.l_1011_1012 phases=3 bus1=bus1011.1.2.3 bus2=bus1012.1.2.3 length=60 units=ft linecode=UG_3p_type2 Seasons=1 Ratings=[400,] normamps=400 emergamps=600
New object=Line.l_1012_1013 phases=3 bus1=bus1012.1.2.3 bus2=bus1013.1.2.3 length=306 units=ft linecode=UG_3p_type2 Seasons=1 Ratings=[400,] normamps=400 emergamps=600
New object=Line.l_1013_1014 phases=1 bus1=bus1013.2.0 bus2=bus1014.2.0 length=208 units=ft linecode=UG_1p_type2 Seasons=1 Ratings=[400,] normamps=400 emergamps=600
New object=Line.l_1014_1015 phases=1 bus1=bus1014.2.0 bus2=bus1015.2.0 length=126 units=ft linecode=UG_1p_type2 Seasons=1 Ratings=[400,] normamps=400 emergamps=600
New object=Line.l_1013_1016 phases=1 bus1=bus1013.3.0 bus2=bus1016.3.0 length=468 units=ft linecode=UG_1p_type2 Seasons=1 Ratings=[400,] normamps=400 emergamps=600
New object=Line.l_1016_1017 phases=1 bus1=bus1016.3.0 bus2=bus1017.3.0 length=71 units=ft linecode=UG_1p_type2 Seasons=1 Ratings=[400,] normamps=400 emergamps=600
New object=Line.l_2001_2002 phases=3 bus1=bus2001.1.2.3 bus2=bus2002.1.2.3 length=1388 units=ft linecode=UG_3p_type1 Seasons=1 Ratings=[400,] normamps=400 emergamps=600
New object=Line.l_2002_2003 phases=3 bus1=bus2002.1.2.3 bus2=bus2003.1.2.3 length=1281 units=ft linecode=OH_3p_type1 Seasons=1 Ratings=[400,] normamps=400 emergamps=600
New object=Line.l_2003_2004 phases=3 bus1=bus2003.1.2.3 bus2=bus2004.1.2.3 length=798 units=ft linecode=OH_3p_type1 Seasons=1 Ratings=[400,] normamps=400 emergamps=600
New object=Line.l_2004_2005 phases=3 bus1=bus2004.1.2.3 bus2=bus2005.1.2.3 length=317 units=ft linecode=OH_3p_type1 Seasons=1 Ratings=[400,] normamps=400 emergamps=600
New object=Line.l_2005_2006 phases=3 bus1=bus2005.1.2.3 bus2=bus2006.1.2.3 length=145 units=ft linecode=OH_3p_type1 Seasons=1 Ratings=[400,] normamps=400 emergamps=600
New object=Line.l_2006_2007 phases=1 bus1=bus2006.1 bus2=bus2007.1 length=245 units=ft linecode=OH_1p_type5 Seasons=1 Ratings=[400,] normamps=400 emergamps=600
New object=Line.l_2007_2008 phases=1 bus1=bus2007.1 bus2=bus2008.1 length=125 units=ft linecode=UG_1p_type2 Seasons=1 Ratings=[400,] normamps=400 emergamps=600
New object=Line.l_2007_2009 phases=1 bus1=bus2007.1 bus2=bus2009.1 length=161 units=ft linecode=OH_1p_type2 Seasons=1 Ratings=[400,] normamps=400 emergamps=600
New object=Line.l_2006_2010 phases=3 bus1=bus2006.1.2.3 bus2=bus2010.1.2.3 length=170 units=ft linecode=OH_3p_type1 Seasons=1 Ratings=[400,] normamps=400 emergamps=600
New object=Line.l_2010_2011 phases=3 bus1=bus2010.1.2.3 bus2=bus2011.1.2.3 length=275 units=ft linecode=OH_3p_type1 Seasons=1 Ratings=[400,] normamps=400 emergamps=600
New object=Line.l_2011_2012 phases=3 bus1=bus2011.1.2.3 bus2=bus2012.1.2.3 length=503 units=ft linecode=OH_3p_type1 Seasons=1 Ratings=[400,] normamps=400 emergamps=600
New object=Line.l_2013_2014 phases=3 bus1=bus2013.1.2.3 bus2=bus2014.1.2.3 length=268 units=ft linecode=OH_3p_type1 Seasons=1 Ratings=[400,] normamps=400 emergamps=600
New object=Line.l_2014_2015 phases=1 bus1=bus2014.2 bus2=bus2015.2 length=120 units=ft linecode=UG_1p_type2 Seasons=1 Ratings=[400,] normamps=400 emergamps=600
New object=Line.l_2014_2016 phases=3 bus1=bus2014.1.2.3 bus2=bus2016.1.2.3 length=257 units=ft linecode=OH_3p_type1 Seasons=1 Ratings=[400,] normamps=400 emergamps=600
New object=Line.l_2016_2017 phases=3 bus1=bus2016.1.2.3 bus2=bus2017.1.2.3 length=174 units=ft linecode=UG_3p_type2 Seasons=1 Ratings=[400,] normamps=400 emergamps=600
New object=Line.l_2017_2018 phases=3 bus1=bus2017.1.2.3 bus2=bus2018.1.2.3 length=447 units=ft linecode=UG_3p_type2 Seasons=1 Ratings=[400,] normamps=400 emergamps=600
New object=Line.l_2013_2019 phases=3 bus1=bus2013.1.2.3 bus2=bus2019.1.2.3 length=45 units=ft linecode=OH_3p_type1 Seasons=1 Ratings=[400,] normamps=400 emergamps=600
New object=Line.l_2019_2020 phases=1 bus1=bus2019.2 bus2=bus2020.2 length=642 units=ft linecode=UG_1p_type2 Seasons=1 Ratings=[400,] normamps=400 emergamps=600
New object=Line.l_2019_2021 phases=3 bus1=bus2019.1.2.3 bus2=bus2021.1.2.3 length=43 units=ft linecode=OH_3p_type1 Seasons=1 Ratings=[400,] normamps=400 emergamps=600
New object=Line.l_2021_2022 phases=1 bus1=bus2021.3 bus2=bus2022.3 length=205 units=ft linecode=UG_1p_type2 Seasons=1 Ratings=[400,] normamps=400 emergamps=600
New object=Line.l_2022_2023 phases=1 bus1=bus2022.3 bus2=bus2023.3 length=150 units=ft linecode=UG_1p_type2 Seasons=1 Ratings=[400,] normamps=400 emergamps=600
New object=Line.l_2023_2024 phases=1 bus1=bus2023.3 bus2=bus2024.3 length=408 units=ft linecode=UG_1p_type2 Seasons=1 Ratings=[400,] normamps=400 emergamps=600
New object=Line.l_2024_2025 phases=1 bus1=bus2024.3 bus2=bus2025.3 length=331 units=ft linecode=UG_1p_type2 Seasons=1 Ratings=[400,] normamps=400 emergamps=600
New object=Line.l_2026_2027 phases=3 bus1=bus2026.1.2.3 bus2=bus2027.1.2.3 length=369 units=ft linecode=OH_3p_type1 Seasons=1 Ratings=[400,] normamps=400 emergamps=600
New object=Line.l_2027_2028 phases=3 bus1=bus2027.1.2.3 bus2=bus2028.1.2.3 length=285 units=ft linecode=UG_3p_type2 Seasons=1 Ratings=[400,] normamps=400 emergamps=600
New object=Line.l_2028_2029 phases=3 bus1=bus2028.1.2.3 bus2=bus2029.1.2.3 length=131 units=ft linecode=UG_3p_type2 Seasons=1 Ratings=[400,] normamps=400 emergamps=600
New object=Line.l_2029_2030 phases=3 bus1=bus2029.1.2.3 bus2=bus2030.1.2.3 length=165 units=ft linecode=UG_3p_type2 Seasons=1 Ratings=[400,] normamps=400 emergamps=600
New object=Line.l_2030_2031 phases=3 bus1=bus2030.1.2.3 bus2=bus2031.1.2.3 length=245 units=ft linecode=UG_3p_type2 Seasons=1 Ratings=[400,] normamps=400 emergamps=600
New object=Line.l_2027_2032 phases=3 bus1=bus2027.1.2.3 bus2=bus2032.1.2.3 length=149 units=ft linecode=OH_3p_type1 Seasons=1 Ratings=[400,] normamps=400 emergamps=600
New object=Line.l_2032_2033 phases=3 bus1=bus2032.1.2.3 bus2=bus2033.1.2.3 length=289 units=ft linecode=OH_3p_type1 Seasons=1 Ratings=[400,] normamps=400 emergamps=600
New object=Line.l_2033_2034 phases=3 bus1=bus2033.1.2.3 bus2=bus2034.1.2.3 length=185 units=ft linecode=OH_3p_type5 Seasons=1 Ratings=[400,] normamps=400 emergamps=600
New object=Line.l_2033_2035 phases=3 bus1=bus2033.1.2.3 bus2=bus2035.1.2.3 length=160 units=ft linecode=OH_3p_type1 Seasons=1 Ratings=[400,] normamps=400 emergamps=600
New object=Line.l_2035_2036 phases=3 bus1=bus2035.1.2.3 bus2=bus2036.1.2.3 length=160 units=ft linecode=OH_3p_type1 Seasons=1 Ratings=[400,] normamps=400 emergamps=600
New object=Line.l_2036_2037 phases=3 bus1=bus2036.1.2.3 bus2=bus2037.1.2.3 length=80 units=ft linecode=OH_3p_type1 Seasons=1 Ratings=[400,] normamps=400 emergamps=600
New object=Line.l_2037_2038 phases=3 bus1=bus2037.1.2.3 bus2=bus2038.1.2.3 length=192 units=ft linecode=OH_3p_type1 Seasons=1 Ratings=[400,] normamps=400 emergamps=600
New object=Line.l_2038_2039 phases=3 bus1=bus2038.1.2.3 bus2=bus2039.1.2.3 length=800 units=ft linecode=OH_3p_type1 Seasons=1 Ratings=[400,] normamps=400 emergamps=600
New object=Line.l_2039_2040 phases=3 bus1=bus2039.1.2.3 bus2=bus2040.1.2.3 length=309 units=ft linecode=OH_3p_type1 Seasons=1 Ratings=[400,] normamps=400 emergamps=600
New object=Line.l_2040_2041 phases=3 bus1=bus2040.1.2.3 bus2=bus2041.1.2.3 length=383 units=ft linecode=OH_3p_type1 Seasons=1 Ratings=[400,] normamps=400 emergamps=600
New object=Line.l_2039_2042 phases=3 bus1=bus2039.1.2.3 bus2=bus2042.1.2.3 length=35 units=ft linecode=UG_3p_type2 Seasons=1 Ratings=[400,] normamps=400 emergamps=600
New object=Line.l_2042_2043 phases=3 bus1=bus2042.1.2.3 bus2=bus2043.1.2.3 length=158 units=ft linecode=UG_3p_type2 Seasons=1 Ratings=[400,] normamps=400 emergamps=600
New object=Line.l_2043_2044 phases=3 bus1=bus2043.1.2.3 bus2=bus2044.1.2.3 length=342 units=ft linecode=UG_3p_type2 Seasons=1 Ratings=[400,] normamps=400 emergamps=600
New object=Line.l_2044_2045 phases=1 bus1=bus2044.2 bus2=bus2045.2 length=323 units=ft linecode=UG_1p_type2 Seasons=1 Ratings=[400,] normamps=400 emergamps=600
New object=Line.l_2045_2046 phases=1 bus1=bus2045.2 bus2=bus2046.2 length=330 units=ft linecode=UG_1p_type2 Seasons=1 Ratings=[400,] normamps=400 emergamps=600
New object=Line.l_2045_2047 phases=1 bus1=bus2045.2 bus2=bus2047.2 length=189 units=ft linecode=UG_1p_type2 Seasons=1 Ratings=[400,] normamps=400 emergamps=600
New object=Line.l_2047_2048 phases=1 bus1=bus2047.2 bus2=bus2048.2 length=259 units=ft linecode=UG_1p_type2 Seasons=1 Ratings=[400,] normamps=400 emergamps=600
New object=Line.l_2044_2049 phases=3 bus1=bus2044.1.2.3 bus2=bus2049.1.2.3 length=130 units=ft linecode=UG_3p_type2 Seasons=1 Ratings=[400,] normamps=400 emergamps=600
New object=Line.l_2049_2050 phases=3 bus1=bus2049.1.2.3 bus2=bus2050.1.2.3 length=124 units=ft linecode=UG_3p_type2 Seasons=1 Ratings=[400,] normamps=400 emergamps=600
New object=Line.l_2050_2051 phases=3 bus1=bus2050.1.2.3 bus2=bus2051.1.2.3 length=139 units=ft linecode=UG_3p_type2 Seasons=1 Ratings=[400,] normamps=400 emergamps=600
New object=Line.l_2051_2052 phases=3 bus1=bus2051.1.2.3 bus2=bus2052.1.2.3 length=134 units=ft linecode=UG_3p_type2 Seasons=1 Ratings=[400,] normamps=400 emergamps=600
New object=Line.l_2044_2053 phases=3 bus1=bus2044.1.2.3 bus2=bus2053.1.2.3 length=464 units=ft linecode=UG_3p_type2 Seasons=1 Ratings=[400,] normamps=400 emergamps=600
New object=Line.l_2053_2054 phases=3 bus1=bus2053.1.2.3 bus2=bus2054.1.2.3 length=139 units=ft linecode=UG_3p_type2 Seasons=1 Ratings=[400,] normamps=400 emergamps=600
New object=Line.l_2054_2055 phases=3 bus1=bus2054.1.2.3 bus2=bus2055.1.2.3 length=156 units=ft linecode=UG_3p_type2 Seasons=1 Ratings=[400,] normamps=400 emergamps=600
New object=Line.l_2055_2056 phases=3 bus1=bus2055.1.2.3 bus2=bus2056.1.2.3 length=204 units=ft linecode=UG_3p_type2 Seasons=1 Ratings=[400,] normamps=400 emergamps=600
New object=Line.l_2053_2057 phases=3 bus1=bus2053.1.2.3 bus2=bus2057.1.2.3 length=761 units=ft linecode=UG_3p_type2 Seasons=1 Ratings=[400,] normamps=400 emergamps=600
New object=Line.l_2057_2058 phases=3 bus1=bus2057.1.2.3 bus2=bus2058.1.2.3 length=407 units=ft linecode=UG_3p_type2 Seasons=1 Ratings=[400,] normamps=400 emergamps=600
New object=Line.l_2057_2059 phases=3 bus1=bus2057.1.2.3 bus2=bus2059.1.2.3 length=685 units=ft linecode=UG_3p_type2 Seasons=1 Ratings=[400,] normamps=400 emergamps=600
New object=Line.l_2059_2060 phases=3 bus1=bus2059.1.2.3 bus2=bus2060.1.2.3 length=304 units=ft linecode=UG_3p_type2 Seasons=1 Ratings=[400,] normamps=400 emergamps=600
New object=Line.l_3001_3003 phases=3 bus1=bus3001.1.2.3 bus2=bus3003.1.2.3 length=2307 units=ft linecode=UG_3p_type1 Seasons=1 Ratings=[400,] normamps=400 emergamps=600
New object=Line.l_3003_3002 phases=3 bus1=bus3003.1.2.3 bus2=bus3002.1.2.3 length=85 units=ft linecode=UG_3p_type2 Seasons=1 Ratings=[400,] normamps=400 emergamps=600
New object=Line.l_3003_3004 phases=3 bus1=bus3003.1.2.3 bus2=bus3004.1.2.3 length=81 units=ft linecode=UG_3p_type2 Seasons=1 Ratings=[400,] normamps=400 emergamps=600
New object=Line.l_3003_3005 phases=3 bus1=bus3003.1.2.3 bus2=bus3005.1.2.3 length=1997 units=ft linecode=UG_3p_type1 Seasons=1 Ratings=[400,] normamps=400 emergamps=600
New object=Line.l_3005_3006 phases=3 bus1=bus3005.1.2.3 bus2=bus3006.1.2.3 length=311 units=ft linecode=OH_3p_type1 Seasons=1 Ratings=[400,] normamps=400 emergamps=600
New object=Line.l_3006_3007 phases=3 bus1=bus3006.1.2.3 bus2=bus3007.1.2.3 length=370 units=ft linecode=OH_3p_type1 Seasons=1 Ratings=[400,] normamps=400 emergamps=600
New object=Line.l_3005_3008 phases=3 bus1=bus3005.1.2.3 bus2=bus3008.1.2.3 length=136 units=ft linecode=OH_3p_type1 Seasons=1 Ratings=[400,] normamps=400 emergamps=600
New object=Line.l_3008_3009 phases=1 bus1=bus3008.1 bus2=bus3009.1 length=161 units=ft linecode=OH_1p_type5 Seasons=1 Ratings=[400,] normamps=400 emergamps=600
New object=Line.l_3009_3010 phases=1 bus1=bus3009.1 bus2=bus3010.1 length=347 units=ft linecode=OH_1p_type5 Seasons=1 Ratings=[400,] normamps=400 emergamps=600
New object=Line.l_3010_3011 phases=1 bus1=bus3010.1 bus2=bus3011.1 length=265 units=ft linecode=OH_1p_type5 Seasons=1 Ratings=[400,] normamps=400 emergamps=600
New object=Line.l_3011_3012 phases=1 bus1=bus3011.1 bus2=bus3012.1 length=312 units=ft linecode=OH_1p_type5 Seasons=1 Ratings=[400,] normamps=400 emergamps=600
New object=Line.l_3008_3013 phases=1 bus1=bus3008.2 bus2=bus3013.2 length=170 units=ft linecode=OH_1p_type5 Seasons=1 Ratings=[400,] normamps=400 emergamps=600
New object=Line.l_3013_3014 phases=1 bus1=bus3013.2 bus2=bus3014.2 length=295 units=ft linecode=OH_1p_type5 Seasons=1 Ratings=[400,] normamps=400 emergamps=600
New object=Line.l_3008_3015 phases=3 bus1=bus3008.1.2.3 bus2=bus3015.1.2.3 length=322 units=ft linecode=OH_3p_type1 Seasons=1 Ratings=[400,] normamps=400 emergamps=600
New object=Line.l_3015_3016 phases=1 bus1=bus3015.2 bus2=bus3016.2 length=210 units=ft linecode=OH_1p_type5 Seasons=1 Ratings=[400,] normamps=400 emergamps=600
New object=Line.l_3016_3017 phases=1 bus1=bus3016.2 bus2=bus3017.2 length=259 units=ft linecode=OH_1p_type5 Seasons=1 Ratings=[400,] normamps=400 emergamps=600
New object=Line.l_3015_3018 phases=1 bus1=bus3015.3 bus2=bus3018.3 length=181 units=ft linecode=OH_1p_type5 Seasons=1 Ratings=[400,] normamps=400 emergamps=600
New object=Line.l_3018_3019 phases=1 bus1=bus3018.3 bus2=bus3019.3 length=281 units=ft linecode=OH_1p_type5 Seasons=1 Ratings=[400,] normamps=400 emergamps=600
New object=Line.l_3019_3020 phases=1 bus1=bus3019.3 bus2=bus3020.3 length=307 units=ft linecode=OH_1p_type5 Seasons=1 Ratings=[400,] normamps=400 emergamps=600
New object=Line.l_3020_3021 phases=1 bus1=bus3020.3 bus2=bus3021.3 length=303 units=ft linecode=OH_1p_type5 Seasons=1 Ratings=[400,] normamps=400 emergamps=600
New object=Line.l_3015_3022 phases=3 bus1=bus3015.1.2.3 bus2=bus3022.1.2.3 length=289 units=ft linecode=OH_3p_type1 Seasons=1 Ratings=[400,] normamps=400 emergamps=600
New object=Line.l_3022_3023 phases=1 bus1=bus3022.1 bus2=bus3023.1 length=181 units=ft linecode=OH_1p_type5 Seasons=1 Ratings=[400,] normamps=400 emergamps=600
New object=Line.l_3023_3024 phases=1 bus1=bus3023.1 bus2=bus3024.1 length=320 units=ft linecode=OH_1p_type5 Seasons=1 Ratings=[400,] normamps=400 emergamps=600
New object=Line.l_3024_3025 phases=1 bus1=bus3024.1 bus2=bus3025.1 length=331 units=ft linecode=OH_1p_type5 Seasons=1 Ratings=[400,] normamps=400 emergamps=600
New object=Line.l_3022_3026 phases=1 bus1=bus3022.1 bus2=bus3026.1 length=164 units=ft linecode=OH_1p_type5 Seasons=1 Ratings=[400,] normamps=400 emergamps=600
New object=Line.l_3026_3027 phases=1 bus1=bus3026.1 bus2=bus3027.1 length=368 units=ft linecode=OH_1p_type5 Seasons=1 Ratings=[400,] normamps=400 emergamps=600
New object=Line.l_3027_3028 phases=1 bus1=bus3027.1 bus2=bus3028.1 length=241 units=ft linecode=OH_1p_type5 Seasons=1 Ratings=[400,] normamps=400 emergamps=600
New object=Line.l_3028_3029 phases=1 bus1=bus3028.1 bus2=bus3029.1 length=317 units=ft linecode=OH_1p_type5 Seasons=1 Ratings=[400,] normamps=400 emergamps=600
New object=Line.l_3022_3030 phases=3 bus1=bus3022.1.2.3 bus2=bus3030.1.2.3 length=304 units=ft linecode=OH_3p_type1 Seasons=1 Ratings=[400,] normamps=400 emergamps=600
New object=Line.l_3030_3035 phases=3 bus1=bus3030.1.2.3 bus2=bus3035.1.2.3 length=103 units=ft linecode=OH_3p_type1 Seasons=1 Ratings=[400,] normamps=400 emergamps=600
New object=Line.l_3035_3036 phases=3 bus1=bus3035.1.2.3 bus2=bus3036.1.2.3 length=271 units=ft linecode=OH_3p_type1 Seasons=1 Ratings=[400,] normamps=400 emergamps=600
New object=Line.l_3036_3037 phases=3 bus1=bus3036.1.2.3 bus2=bus3037.1.2.3 length=136 units=ft linecode=OH_3p_type1 Seasons=1 Ratings=[400,] normamps=400 emergamps=600
New object=Line.l_3037_3038 phases=3 bus1=bus3037.1.2.3 bus2=bus3038.1.2.3 length=252 units=ft linecode=OH_3p_type1 Seasons=1 Ratings=[400,] normamps=400 emergamps=600
New object=Line.l_3038_3039 phases=3 bus1=bus3038.1.2.3 bus2=bus3039.1.2.3 length=235 units=ft linecode=OH_3p_type1 Seasons=1 Ratings=[400,] normamps=400 emergamps=600
New object=Line.l_3039_3053 phases=3 bus1=bus3039.1.2.3 bus2=bus3053.1.2.3 length=263 units=ft linecode=OH_3p_type1 Seasons=1 Ratings=[400,] normamps=400 emergamps=600
New object=Line.l_3053_3054 phases=3 bus1=bus3053.1.2.3 bus2=bus3054.1.2.3 length=280 units=ft linecode=UG_3p_type2 Seasons=1 Ratings=[400,] normamps=400 emergamps=600
New object=Line.l_3053_3055 phases=1 bus1=bus3053.2 bus2=bus3055.2 length=1335 units=ft linecode=UG_1p_type2 Seasons=1 Ratings=[400,] normamps=400 emergamps=600
New object=Line.l_3055_3056 phases=1 bus1=bus3055.2 bus2=bus3056.2 length=128 units=ft linecode=UG_1p_type2 Seasons=1 Ratings=[400,] normamps=400 emergamps=600
New object=Line.l_3056_3057 phases=1 bus1=bus3056.2 bus2=bus3057.2 length=178 units=ft linecode=UG_1p_type2 Seasons=1 Ratings=[400,] normamps=400 emergamps=600
New object=Line.l_3057_3058 phases=1 bus1=bus3057.2 bus2=bus3058.2 length=178 units=ft linecode=UG_1p_type2 Seasons=1 Ratings=[400,] normamps=400 emergamps=600
New object=Line.l_3058_3059 phases=1 bus1=bus3058.2 bus2=bus3059.2 length=274 units=ft linecode=UG_1p_type2 Seasons=1 Ratings=[400,] normamps=400 emergamps=600
New object=Line.l_3059_3060 phases=1 bus1=bus3059.2 bus2=bus3060.2 length=77 units=ft linecode=UG_1p_type2 Seasons=1 Ratings=[400,] normamps=400 emergamps=600
New object=Line.l_3060_3061 phases=1 bus1=bus3060.2 bus2=bus3061.2 length=184 units=ft linecode=UG_1p_type2 Seasons=1 Ratings=[400,] normamps=400 emergamps=600
New object=Line.l_3055_3062 phases=1 bus1=bus3055.2 bus2=bus3062.2 length=443 units=ft linecode=UG_1p_type2 Seasons=1 Ratings=[400,] normamps=400 emergamps=600
New object=Line.l_3062_3063 phases=1 bus1=bus3062.2 bus2=bus3063.2 length=198 units=ft linecode=UG_1p_type2 Seasons=1 Ratings=[400,] normamps=400 emergamps=600
New object=Line.l_3063_3064 phases=1 bus1=bus3063.2 bus2=bus3064.2 length=157 units=ft linecode=UG_1p_type2 Seasons=1 Ratings=[400,] normamps=400 emergamps=600
New object=Line.l_3064_3065 phases=1 bus1=bus3064.2 bus2=bus3065.2 length=205 units=ft linecode=UG_1p_type2 Seasons=1 Ratings=[400,] normamps=400 emergamps=600
New object=Line.l_3065_3066 phases=1 bus1=bus3065.2 bus2=bus3066.2 length=123 units=ft linecode=UG_1p_type2 Seasons=1 Ratings=[400,] normamps=400 emergamps=600
New object=Line.l_3066_3067 phases=1 bus1=bus3066.2 bus2=bus3067.2 length=274 units=ft linecode=UG_1p_type2 Seasons=1 Ratings=[400,] normamps=400 emergamps=600
New object=Line.l_3030_3040 phases=3 bus1=bus3030.1.2.3 bus2=bus3040.1.2.3 length=332 units=ft linecode=OH_3p_type1 Seasons=1 Ratings=[400,] normamps=400 emergamps=600
New object=Line.l_3040_3044 phases=1 bus1=bus3040.3 bus2=bus3044.3 length=144 units=ft linecode=OH_1p_type5 Seasons=1 Ratings=[400,] normamps=400 emergamps=600
New object=Line.l_3044_3045 phases=1 bus1=bus3044.3 bus2=bus3045.3 length=393 units=ft linecode=OH_1p_type5 Seasons=1 Ratings=[400,] normamps=400 emergamps=600
New object=Line.l_3040_3041 phases=1 bus1=bus3040.3 bus2=bus3041.3 length=121 units=ft linecode=OH_1p_type5 Seasons=1 Ratings=[400,] normamps=400 emergamps=600
New object=Line.l_3041_3042 phases=1 bus1=bus3041.3 bus2=bus3042.3 length=328 units=ft linecode=OH_1p_type5 Seasons=1 Ratings=[400,] normamps=400 emergamps=600
New object=Line.l_3042_3043 phases=1 bus1=bus3042.3 bus2=bus3043.3 length=418 units=ft linecode=OH_1p_type5 Seasons=1 Ratings=[400,] normamps=400 emergamps=600
New object=Line.l_3040_3046 phases=3 bus1=bus3040.1.2.3 bus2=bus3046.1.2.3 length=329 units=ft linecode=OH_3p_type1 Seasons=1 Ratings=[400,] normamps=400 emergamps=600
New object=Line.l_3046_3047 phases=3 bus1=bus3046.1.2.3 bus2=bus3047.1.2.3 length=219 units=ft linecode=OH_3p_type1 Seasons=1 Ratings=[400,] normamps=400 emergamps=600
New object=Line.l_3046_3048 phases=3 bus1=bus3046.1.2.3 bus2=bus3048.1.2.3 length=130 units=ft linecode=OH_3p_type1 Seasons=1 Ratings=[400,] normamps=400 emergamps=600
New object=Line.l_3048_3049 phases=3 bus1=bus3048.1.2.3 bus2=bus3049.1.2.3 length=226 units=ft linecode=OH_3p_type1 Seasons=1 Ratings=[400,] normamps=400 emergamps=600
New object=Line.l_3049_3050 phases=3 bus1=bus3049.1.2.3 bus2=bus3050.1.2.3 length=167 units=ft linecode=OH_3p_type1 Seasons=1 Ratings=[400,] normamps=400 emergamps=600
New object=Line.l_3050_3051 phases=3 bus1=bus3050.1.2.3 bus2=bus3051.1.2.3 length=360 units=ft linecode=OH_3p_type1 Seasons=1 Ratings=[400,] normamps=400 emergamps=600
New object=Line.l_3051_3052 phases=3 bus1=bus3051.1.2.3 bus2=bus3052.1.2.3 length=292 units=ft linecode=OH_3p_type1 Seasons=1 Ratings=[400,] normamps=400 emergamps=600
New object=Line.l_3030_3031 phases=3 bus1=bus3030.1.2.3 bus2=bus3031.1.2.3 length=243 units=ft linecode=OH_3p_type1 Seasons=1 Ratings=[400,] normamps=400 emergamps=600
New object=Line.l_3031_3032 phases=3 bus1=bus3031.1.2.3 bus2=bus3032.1.2.3 length=251 units=ft linecode=OH_3p_type1 Seasons=1 Ratings=[400,] normamps=400 emergamps=600
New object=Line.l_3032_3033 phases=3 bus1=bus3032.1.2.3 bus2=bus3033.1.2.3 length=388 units=ft linecode=OH_3p_type1 Seasons=1 Ratings=[400,] normamps=400 emergamps=600
New object=Line.l_3033_3034 phases=3 bus1=bus3033.1.2.3 bus2=bus3034.1.2.3 length=257 units=ft linecode=OH_3p_type1 Seasons=1 Ratings=[400,] normamps=400 emergamps=600
New object=Line.l_3034_3068 phases=3 bus1=bus3034.1.2.3 bus2=bus3068.1.2.3 length=164 units=ft linecode=OH_3p_type1 Seasons=1 Ratings=[400,] normamps=400 emergamps=600
New object=Line.l_3068_3069 phases=3 bus1=bus3068.1.2.3 bus2=bus3069.1.2.3 length=329 units=ft linecode=OH_3p_type1 Seasons=1 Ratings=[400,] normamps=400 emergamps=600
New object=Line.l_3069_3070 phases=3 bus1=bus3069.1.2.3 bus2=bus3070.1.2.3 length=107 units=ft linecode=UG_3p_type2 Seasons=1 Ratings=[400,] normamps=400 emergamps=600
New object=Line.l_3070_3071 phases=3 bus1=bus3070.1.2.3 bus2=bus3071.1.2.3 length=141 units=ft linecode=UG_3p_type2 Seasons=1 Ratings=[400,] normamps=400 emergamps=600
New object=Line.l_3071_3072 phases=3 bus1=bus3071.1.2.3 bus2=bus3072.1.2.3 length=90 units=ft linecode=UG_3p_type2 Seasons=1 Ratings=[400,] normamps=400 emergamps=600
New object=Line.l_3069_3073 phases=3 bus1=bus3069.1.2.3 bus2=bus3073.1.2.3 length=20 units=ft linecode=OH_3p_type1 Seasons=1 Ratings=[400,] normamps=400 emergamps=600
New object=Line.l_3073_3074 phases=3 bus1=bus3073.1.2.3 bus2=bus3074.1.2.3 length=340 units=ft linecode=OH_3p_type1 Seasons=1 Ratings=[400,] normamps=400 emergamps=600
New object=Line.l_3068_3075 phases=3 bus1=bus3068.1.2.3 bus2=bus3075.1.2.3 length=188 units=ft linecode=OH_3p_type1 Seasons=1 Ratings=[400,] normamps=400 emergamps=600
New object=Line.l_3076_3077 phases=3 bus1=bus3076.1.2.3 bus2=bus3077.1.2.3 length=877 units=ft linecode=OH_3p_type1 Seasons=1 Ratings=[400,] normamps=400 emergamps=600
New object=Line.l_3077_3078 phases=3 bus1=bus3077.1.2.3 bus2=bus3078.1.2.3 length=80 units=ft linecode=OH_3p_type1 Seasons=1 Ratings=[400,] normamps=400 emergamps=600
New object=Line.l_3076_3079 phases=3 bus1=bus3076.1.2.3 bus2=bus3079.1.2.3 length=191 units=ft linecode=OH_3p_type1 Seasons=1 Ratings=[400,] normamps=400 emergamps=600
New object=Line.l_3079_3080 phases=3 bus1=bus3079.1.2.3 bus2=bus3080.1.2.3 length=604 units=ft linecode=OH_3p_type1 Seasons=1 Ratings=[400,] normamps=400 emergamps=600