! Master file for 8500-Node IEEE Test Feeder Case
! Unbalanced Load Case

Clear

New Circuit.IEEE8500u  

! Make the source stiff with small impedance
~ pu=1.05  r1=0  x1=0.001  r0=0  x0=0.001  

! Redirect  LineCodes2.dss
! Line impedances defined by matrix values (in ohms)
!--- OpenDSS Linecodes file generated from Show LINECONSTANTS command
!--- Frequency = 60 Hz, Earth resistivity = 100 ohm-m

New Linecode.1ph-x4_acsrx4_acsr nphases=1  Units=km
~ Rmatrix=[1.67466  ]
~ Xmatrix=[0.93456  ]
~ Cmatrix=[6.32285  ]

New Linecode.1ph-xx4_acsr4_acsr nphases=1  Units=km
~ Rmatrix=[1.67466  ]
~ Xmatrix=[0.93456  ]
~ Cmatrix=[6.32285  ]

New Linecode.1ph-x2_acsrx2_acsr nphases=1  Units=km
~ Rmatrix=[1.1223  ]
~ Xmatrix=[0.896365  ]
~ Cmatrix=[6.49582  ]

New Linecode.1ph-x4_acsrx4_wpal nphases=1  Units=km
~ Rmatrix=[1.67723  ]
~ Xmatrix=[0.932411  ]
~ Cmatrix=[6.32285  ]

New Linecode.3ph_h-4_acsr4_acsr4_acsr4_acsr nphases=3  Units=km
~ Rmatrix=[1.6834  |0.138324  1.67686  |0.142669  0.139294  1.68543  ]
~ Xmatrix=[0.9273  |0.432623  0.932728  |0.412253  0.450469  0.925637  ]
~ Cmatrix=[7.60098  |-1.99751  7.88811  |-1.66797  -2.32489  7.78037  ]

New Linecode.3ph_h-2/0_acsr2/0_acsr2/0_acsr2_acsr nphases=3  Units=km
~ Rmatrix=[0.66087  |0.137499  0.653999  |0.142066  0.138518  0.663007  ]
~ Xmatrix=[0.869947  |0.388579  0.878528  |0.366115  0.405953  0.8673  ]
~ Cmatrix=[8.3452  |-2.31601  8.72099  |-1.91256  -2.71715  8.57671  ]

New Linecode.1ph-4_wpalxx2_wpal nphases=1  Units=km
~ Rmatrix=[1.63092  ]
~ Xmatrix=[0.861221  ]
~ Cmatrix=[6.32285  ]

New Linecode.3ph_h-4_acsr2_acsr2_acsr4_wpal nphases=3  Units=km
~ Rmatrix=[1.68626  |0.141078  1.12824  |0.145566  0.14208  1.1371  ]
~ Xmatrix=[0.924966  |0.430359  0.933765  |0.409898  0.448185  0.926495  ]
~ Cmatrix=[7.63018  |-2.04889  8.18434  |-1.70374  -2.48649  8.06911  ]

New Linecode.1ph-4_acsrxx4_acsr nphases=1  Units=km
~ Rmatrix=[1.67466  ]
~ Xmatrix=[0.93456  ]
~ Cmatrix=[6.32285  ]

New Linecode.3ph_h-4_acsr4_acsr4_acsr4_wpal nphases=3  Units=km
~ Rmatrix=[1.68626  |0.141078  1.6795  |0.145566  0.14208  1.68836  ]
~ Xmatrix=[0.924966  |0.430359  0.930531  |0.409898  0.448185  0.923261  ]
~ Cmatrix=[7.60098  |-1.99751  7.88811  |-1.66797  -2.32489  7.78037  ]

New Linecode.1ph-2_acsrxx2_acsr nphases=1  Units=km
~ Rmatrix=[1.1223  ]
~ Xmatrix=[0.896365  ]
~ Cmatrix=[6.49582  ]

New Linecode.1ph-4_wpalxx4_acsr nphases=1  Units=km
~ Rmatrix=[1.63124  ]
~ Xmatrix=[0.898979  ]
~ Cmatrix=[6.32285  ]

New Linecode.3ph_h-397_acsr397_acsr397_acsr2/0_acsr nphases=3  Units=km
~ Rmatrix=[0.270019  |0.109951  0.264634  |0.113538  0.110747  0.271698  ]
~ Xmatrix=[0.695974  |0.33351  0.708729  |0.308271  0.350259  0.692021  ]
~ Cmatrix=[9.13606  |-2.66777  9.62226  |-2.17646  -3.15664  9.43197  ]

New Linecode.1ph-2_acsrxx4_acsr nphases=1  Units=km
~ Rmatrix=[1.12339  ]
~ Xmatrix=[0.937794  ]
~ Cmatrix=[6.49582  ]

New Linecode.1ph-xx2_acsr2_acsr nphases=1  Units=km
~ Rmatrix=[1.1223  ]
~ Xmatrix=[0.896365  ]
~ Cmatrix=[6.49582  ]

New Linecode.1ph-xx4_wpal4_wpal nphases=1  Units=km
~ Rmatrix=[1.63382  ]
~ Xmatrix=[0.89683  ]
~ Cmatrix=[6.32285  ]

New Linecode.1ph-x4_wpalx4_wpal nphases=1  Units=km
~ Rmatrix=[1.63382  ]
~ Xmatrix=[0.89683  ]
~ Cmatrix=[6.32285  ]

New Linecode.1ph-xx4_wpal4_acsr nphases=1  Units=km
~ Rmatrix=[1.63124  ]
~ Xmatrix=[0.898979  ]
~ Cmatrix=[6.32285  ]

New Linecode.1ph-x2_acsrx1/0_tpx nphases=1  Units=km
~ Rmatrix=[1.03207  ]
~ Xmatrix=[0.801436  ]
~ Cmatrix=[6.49582  ]

New Linecode.1ph-4_acsrxx4_wpal nphases=1  Units=km
~ Rmatrix=[1.67723  ]
~ Xmatrix=[0.932411  ]
~ Cmatrix=[6.32285  ]

New Linecode.1ph-xx4_acsr1/0_tpx nphases=1  Units=km
~ Rmatrix=[1.58334  ]
~ Xmatrix=[0.798203  ]
~ Cmatrix=[6.32285  ]

New Linecode.3ph_h-4_wpal4_wpal4_wpal4_acsr nphases=3  Units=km
~ Rmatrix=[1.63999  |0.138324  1.63344  |0.142669  0.139294  1.64202  ]
~ Xmatrix=[0.891719  |0.432623  0.897146  |0.412253  0.450469  0.890056  ]
~ Cmatrix=[7.60098  |-1.99751  7.88811  |-1.66797  -2.32489  7.78037  ]

New Linecode.1ph-x4_wpalx4_acsr nphases=1  Units=km
~ Rmatrix=[1.63124  ]
~ Xmatrix=[0.898979  ]
~ Cmatrix=[6.32285  ]

New Linecode.1ph-4_wpalxx4_wpal nphases=1  Units=km
~ Rmatrix=[1.63382  ]
~ Xmatrix=[0.89683  ]
~ Cmatrix=[6.32285  ]

New Linecode.3ph_h-4_wpal4_wpal4_wpal4_wpal nphases=3  Units=km
~ Rmatrix=[1.64285  |0.141078  1.63609  |0.145566  0.14208  1.64495  ]
~ Xmatrix=[0.889385  |0.430359  0.89495  |0.409898  0.448185  0.88768  ]
~ Cmatrix=[7.60098  |-1.99751  7.88811  |-1.66797  -2.32489  7.78037  ]

New Linecode.3ph_h-2_acsr2_acsr2_acsr2_acsr nphases=3  Units=km
~ Rmatrix=[1.13148  |0.137499  1.12461  |0.142066  0.138518  1.13362  ]
~ Xmatrix=[0.884886  |0.388579  0.893467  |0.366115  0.405953  0.882239  ]
~ Cmatrix=[7.8835  |-2.11691  8.2026  |-1.7603  -2.4713  8.08174  ]

New Linecode.1ph-4_acsrxx1/0_tpx nphases=1  Units=km
~ Rmatrix=[1.58334  ]
~ Xmatrix=[0.798203  ]
~ Cmatrix=[6.32285  ]

New Linecode.3ph_h-4_acsr2_acsr2_acsr4_acsr nphases=3  Units=km
~ Rmatrix=[1.6834  |0.138324  1.12559  |0.142669  0.139294  1.13417  ]
~ Xmatrix=[0.9273  |0.432623  0.935962  |0.412253  0.450469  0.928871  ]
~ Cmatrix=[7.63018  |-2.04889  8.18434  |-1.70374  -2.48649  8.06911  ]

New Linecode.1ph-xx4_acsr4_wpal nphases=1  Units=km
~ Rmatrix=[1.67723  ]
~ Xmatrix=[0.932411  ]
~ Cmatrix=[6.32285  ]

New Linecode.1ph-4_acsrxx2_acsr nphases=1  Units=km
~ Rmatrix=[1.67357  ]
~ Xmatrix=[0.893131  ]
~ Cmatrix=[6.32285  ]

New Linecode.1ph-x4_wpalx1/0_tpx nphases=1  Units=km
~ Rmatrix=[1.53992  ]
~ Xmatrix=[0.762621  ]
~ Cmatrix=[6.32285  ]

New Linecode.1ph-xx4_acsr1/0_acsr nphases=1  Units=km
~ Rmatrix=[1.65698  ]
~ Xmatrix=[0.855269  ]
~ Cmatrix=[6.32285  ]

New Linecode.1ph-2_acsrxx4_wpal nphases=1  Units=km
~ Rmatrix=[1.12597  ]
~ Xmatrix=[0.935645  ]
~ Cmatrix=[6.49582  ]

New Linecode.1ph-xx2/0_acsr1/0_tpx nphases=1  Units=km
~ Rmatrix=[0.561461  ]
~ Xmatrix=[0.786498  ]
~ Cmatrix=[6.76998  ]

New Linecode.2ph_h-2_acsrx2_acsr2_acsr nphases=2  Units=km
~ Rmatrix=[1.13148  |0.142066  1.13362  ]
~ Xmatrix=[0.884886  |0.366115  0.882239  ]
~ Cmatrix=[7.33718  |-2.39809  7.33718  ]

New Linecode.1ph-2_wpalxx2_wpal nphases=1  Units=km
~ Rmatrix=[1.16232  ]
~ Xmatrix=[0.900036  ]
~ Cmatrix=[6.49582  ]

New Linecode.1ph-2_acsrxx4/0_tpx nphases=1  Units=km
~ Rmatrix=[1.07236  ]
~ Xmatrix=[0.807978  ]
~ Cmatrix=[6.49582  ]

New Linecode.3ph_h-397_acsr397_acsr397_acsr4_wpal nphases=3  Units=km
~ Rmatrix=[0.301838  |0.141078  0.295078  |0.145566  0.14208  0.303936  ]
~ Xmatrix=[0.796484  |0.430359  0.802049  |0.409898  0.448185  0.794778  ]
~ Cmatrix=[9.13606  |-2.66777  9.62226  |-2.17646  -3.15664  9.43197  ]

New Linecode.3ph_h-397_acsr397_acsr397_acsr397_acsr nphases=3  Units=km
~ Rmatrix=[0.214162  |0.0557957  0.212131  |0.0571636  0.0560892  0.214801  ]
~ Xmatrix=[0.634957  |0.27487  0.652375  |0.246528  0.29092  0.629544  ]
~ Cmatrix=[9.13606  |-2.66777  9.62226  |-2.17646  -3.15664  9.43197  ]

New Linecode.1ph-xx2_acsr1/0_tpx nphases=1  Units=km
~ Rmatrix=[1.03207  ]
~ Xmatrix=[0.801436  ]
~ Cmatrix=[6.49582  ]

New Linecode.1ph-x4_acsrx2_wpal nphases=1  Units=km
~ Rmatrix=[1.67434  ]
~ Xmatrix=[0.896802  ]
~ Cmatrix=[6.32285  ]

New Linecode.1ph-x4_acsrx4_dpx nphases=1  Units=km
~ Rmatrix=[1.6773  ]
~ Xmatrix=[0.932059  ]
~ Cmatrix=[6.32285  ]

New Linecode.3ph_h-2_acsr2_acsr4_acsr4_acsr nphases=3  Units=km
~ Rmatrix=[1.13214  |0.138324  1.12559  |0.142669  0.139294  1.68543  ]
~ Xmatrix=[0.930534  |0.432623  0.935962  |0.412253  0.450469  0.925637  ]
~ Cmatrix=[7.87088  |-2.13463  8.17773  |-1.70236  -2.38996  7.81573  ]

New Linecode.1ph-4_wpalxx1/0_tpx nphases=1  Units=km
~ Rmatrix=[1.53992  ]
~ Xmatrix=[0.762621  ]
~ Cmatrix=[6.32285  ]

New Linecode.1ph-x4_acsrx1/0_tpx nphases=1  Units=km
~ Rmatrix=[1.58334  ]
~ Xmatrix=[0.798203  ]
~ Cmatrix=[6.32285  ]

New Linecode.1ph-4_acsrxx1/0_3w_cs nphases=1  Units=km
~ Rmatrix=[1.66186  ]
~ Xmatrix=[0.844051  ]
~ Cmatrix=[6.32285  ]

New Linecode.1ph-x2_acsrx4_acsr nphases=1  Units=km
~ Rmatrix=[1.12339  ]
~ Xmatrix=[0.937794  ]
~ Cmatrix=[6.49582  ]

New Linecode.1ph-x2_acsrx1/0_3w_cs nphases=1  Units=km
~ Rmatrix=[1.11059  ]
~ Xmatrix=[0.847285  ]
~ Cmatrix=[6.49582  ]

New Linecode.3ph_h-2/0_acsr2/0_acsr2/0_acsr2/0_acsr nphases=3  Units=km
~ Rmatrix=[0.63257  |0.109951  0.627184  |0.113538  0.110747  0.634249  ]
~ Xmatrix=[0.812752  |0.33351  0.825507  |0.308271  0.350259  0.808799  ]
~ Cmatrix=[8.3452  |-2.31601  8.72099  |-1.91256  -2.71715  8.57671  ]

New Linecode.1ph-2_acsrxx1/0_tpx nphases=1  Units=km
~ Rmatrix=[1.03207  ]
~ Xmatrix=[0.801436  ]
~ Cmatrix=[6.49582  ]

New Linecode.3ph_h-4_wpal4_wpal4_wpal1/0_tpx nphases=3  Units=km
~ Rmatrix=[1.54119  |0.0423582  1.54023  |0.043017  0.0424921  1.5415  ]
~ Xmatrix=[0.740322  |0.286955  0.756994  |0.259106  0.303117  0.73514  ]
~ Cmatrix=[7.60098  |-1.99751  7.88811  |-1.66797  -2.32489  7.78037  ]

New Linecode.1ph-x4_wpalx2_acsr nphases=1  Units=km
~ Rmatrix=[1.63015  ]
~ Xmatrix=[0.85755  ]
~ Cmatrix=[6.32285  ]

New Linecode.3ph_h-2/0_acsr2/0_acsr2/0_acsr2_wpal nphases=3  Units=km
~ Rmatrix=[0.661672  |0.138291  0.654779  |0.142872  0.139313  0.663816  ]
~ Xmatrix=[0.874001  |0.392488  0.882296  |0.370214  0.409905  0.871444  ]
~ Cmatrix=[8.3452  |-2.31601  8.72099  |-1.91256  -2.71715  8.57671  ]

New Linecode.1ph-xx4_acsr2_acsr nphases=1  Units=km
~ Rmatrix=[1.67357  ]
~ Xmatrix=[0.893131  ]
~ Cmatrix=[6.32285  ]

New Linecode.1ph-x4_acsrx4_tpx nphases=1  Units=km
~ Rmatrix=[1.6773  ]
~ Xmatrix=[0.932059  ]
~ Cmatrix=[6.32285  ]

New Linecode.3ph_h-4_acsr4_acsr4_acsr4_tpx nphases=3  Units=km
~ Rmatrix=[1.68634  |0.141153  1.67957  |0.145647  0.142157  1.68844  ]
~ Xmatrix=[0.92458  |0.429986  0.930171  |0.409508  0.447808  0.922866  ]
~ Cmatrix=[7.60098  |-1.99751  7.88811  |-1.66797  -2.32489  7.78037  ]

New Linecode.1ph-4_acsrxx6_wpal nphases=1  Units=km
~ Rmatrix=[1.66227  ]
~ Xmatrix=[0.967202  ]
~ Cmatrix=[6.32285  ]

New Linecode.1ph-xx4_acsr4_tpx nphases=1  Units=km
~ Rmatrix=[1.6773  ]
~ Xmatrix=[0.932059  ]
~ Cmatrix=[6.32285  ]

New Linecode.3ph_h-397_acsr397_acsr397_acsr2/0_wpal nphases=3  Units=km
~ Rmatrix=[0.270019  |0.109951  0.264634  |0.113538  0.110747  0.271698  ]
~ Xmatrix=[0.695974  |0.33351  0.708729  |0.308271  0.350259  0.692021  ]
~ Cmatrix=[9.13606  |-2.66777  9.62226  |-2.17646  -3.15664  9.43197  ]

New Linecode.1ph-2/0_acsrxx2_acsr nphases=1  Units=km
~ Rmatrix=[0.651691  ]
~ Xmatrix=[0.881426  ]
~ Cmatrix=[6.76998  ]

New Linecode.3ph_h-2/0_acsr2/0_acsr2/0_acsr4_acsr nphases=3  Units=km
~ Rmatrix=[0.661525  |0.138324  0.654981  |0.142669  0.139294  0.663555  ]
~ Xmatrix=[0.915595  |0.432623  0.921023  |0.412253  0.450469  0.913932  ]
~ Cmatrix=[8.3452  |-2.31601  8.72099  |-1.91256  -2.71715  8.57671  ]

New Linecode.1ph-xx4_wpal1/0_tpx nphases=1  Units=km
~ Rmatrix=[1.53992  ]
~ Xmatrix=[0.762621  ]
~ Cmatrix=[6.32285  ]

New Linecode.1ph-xx6_wpal6_wpal nphases=1  Units=km
~ Rmatrix=[2.50305  ]
~ Xmatrix=[0.974922  ]
~ Cmatrix=[6.1596  ]

New Linecode.1ph-x2_acsrx4_tpx nphases=1  Units=km
~ Rmatrix=[1.12603  ]
~ Xmatrix=[0.935293  ]
~ Cmatrix=[6.49582  ]

New Linecode.3ph_h-4_acsr4_acsr4_acsr2_wpal nphases=3  Units=km
~ Rmatrix=[1.68355  |0.138291  1.67665  |0.142872  0.139313  1.68569  ]
~ Xmatrix=[0.885706  |0.392488  0.894001  |0.370214  0.409905  0.883149  ]
~ Cmatrix=[7.60098  |-1.99751  7.88811  |-1.66797  -2.32489  7.78037  ]

New Linecode.1ph-x4_acsrx1/0_3w_cs nphases=1  Units=km
~ Rmatrix=[1.66186  ]
~ Xmatrix=[0.844051  ]
~ Cmatrix=[6.32285  ]

New Linecode.1ph-xx2_acsr4_dpx nphases=1  Units=km
~ Rmatrix=[1.12603  ]
~ Xmatrix=[0.935293  ]
~ Cmatrix=[6.49582  ]

New Linecode.1P_1/0_AXNJ_DB         nphases=1 r1=0.958962 x1=0.541276 r0=0.958962 x0=0.541276  c1=25.9234833984413  c0=25.9234833984413  units=km baseFreq=60 normamps=220  emergamps=220  faultrate=0.1 pctperm=20 repair=3 
New Linecode.3P_1/0_AXNJ_DB         nphases=3 r1=0.551156 x1=0.200765 r0=1.350357 x0=0.426882  c1=48.6655390619471  c0=48.6655390619471  units=km baseFreq=60 normamps=190  emergamps=190  faultrate=0.1 pctperm=20 repair=3 



! Redirect  Triplex_Linecodes.dss
! Linecodes for secondary Triplex 
! These linecodes are defined as a 2-phase line. The neutral conductor
! is assumed grounded at both ends and reduced out by Kron reduction

New Linecode.750_Triplex  nphases=2 units=kft    ! ohms per 1000 ft
~ rmatrix=[  0.04974733   0.02342157 |  0.02342157   0.04974733 ]
~ xmatrix=[  0.02782436   0.00669472 |  0.00669472   0.02782436 ]
~ cmatrix=[  3.00000000  -2.40000000 | -2.40000000   3.00000000 ]
~ NormAmps=580 emergamps=725


New Linecode.4/0Triplex nphases=2 units=kft      !ohms per 1000 ft
~ rmatrix=[  0.40995115   0.11809509 |  0.11809509   0.40995115 ]
~ xmatrix=[  0.16681819   0.12759250 |  0.12759250   0.16681819 ]
~ cmatrix=[  3.00000000  -2.40000000 | -2.40000000   3.00000000 ]
~ Normamps=156 emergamps=195



! Redirect  Lines.dss
! Primary circuit line definitions
! Most lines pick up their impedance and phase definition from the Linecodes.DSS file

New Line.HVMV_Sub_connector  bus1=_HVMV_Sub_LSB       bus2=HVMV_Sub_48332      length=0.001       units=km r1=0.001                                        r0=0.001 x1=0.01      x0=0.01      c1=0     c0=0           
New Line.LN5502549-1         bus1=M1009763.2          bus2=L2673322.2          length=0.032175613 units=km Linecode=1PH-x4_ACSRx4_ACSR                
New Line.LN6259988-1         bus1=M1069148.3          bus2=L2673309.3          length=0.10723408  units=km Linecode=1PH-xx4_ACSR4_ACSR                
New Line.LN6077796-1         bus1=M1069588.2          bus2=L2804270.2          length=0.011446341 units=km Linecode=1PH-x4_ACSRx4_ACSR                
New Line.LN5835135-2         bus1=M3036164.2          bus2=L2935553.2          length=0.047751634 units=km Linecode=1PH-x4_ACSRx4_ACSR                
New Line.LN5896826-1         bus1=M1209749.2          bus2=L2748840.2          length=0.20318135  units=km Linecode=1PH-x2_ACSRx2_ACSR                
New Line.LN5714038-1         bus1=M1108264.2          bus2=M1108263.2          length=0.099994301 units=km Linecode=1PH-x4_ACSRx4_WPAL                
New Line.LN5653457-1         bus1=L3085398            bus2=M1026891            length=0.085708298 units=km Linecode=3PH_H-4_ACSR4_ACSR4_ACSR4_ACSR          
New Line.LN5835173-1         bus1=L3216367            bus2=M1069468            length=0.04134682  units=km Linecode=3PH_H-2/0_ACSR2/0_ACSR2/0_ACSR2_ACSR    
New Line.LN6321415-1         bus1=M1142800.2          bus2=M1142799.2          length=0.093302869 units=km Linecode=1PH-x2_ACSRx2_ACSR                
New Line.LN5565092-1         bus1=M1047592.3          bus2=P827512.3           length=0.003656151 units=km Linecode=1PH-xx4_ACSR4_ACSR                
New Line.LN6073648-1         bus1=M1047339.1          bus2=P895104.1           length=0.007739728 units=km Linecode=1PH-4_WPALxx2_WPAL                
New Line.LN5774457-1         bus1=M1026915            bus2=M1026920            length=0.04084655  units=km Linecode=3PH_H-4_ACSR2_ACSR2_ACSR4_WPAL          
New Line.LN5534966-3         bus1=N1138596.1          bus2=L3254207.1          length=0.024491351 units=km Linecode=1PH-4_ACSRxx4_ACSR                
New Line.LN5859996-1         bus1=M1069464.2          bus2=P873787.2           length=0.006235546 units=km Linecode=1PH-x2_ACSRx2_ACSR                
New Line.LN6138610-2         bus1=N1144665            bus2=M1047515            length=0.02738852  units=km Linecode=3PH_H-4_ACSR4_ACSR4_ACSR4_WPAL          
New Line.LN6258435-3         bus1=N1137002.1          bus2=M1047707.1          length=0.092480965 units=km Linecode=1PH-2_ACSRxx2_ACSR                
New Line.LN5804790-1         bus1=L2729406.3          bus2=L2897768.3          length=0.19477261  units=km Linecode=1PH-xx4_ACSR4_ACSR                
New Line.LN6900591-14        bus1=L3649301.1          bus2=L3649302.1          length=0.063060497 units=km Linecode=1PH-2_ACSRxx2_ACSR                
New Line.LN6409873-1         bus1=L2970842.2          bus2=M1089113.2          length=0.071877523 units=km Linecode=1PH-x4_ACSRx4_ACSR                
New Line.LN6014135-1         bus1=M1047312.1          bus2=P893163.1           length=0.004144648 units=km Linecode=1PH-4_WPALxx4_ACSR                
New Line.LN6077784-1         bus1=L2822871            bus2=M1026872            length=0.060144485 units=km Linecode=3PH_H-2/0_ACSR2/0_ACSR2/0_ACSR2_ACSR    
New Line.LN5744338-1         bus1=M1026312.2          bus2=L2973163.2          length=0.053487035 units=km Linecode=1PH-x4_ACSRx4_WPAL                
New Line.LN6991381-4         bus1=L3728038.1          bus2=L3728039.1          length=0.079108815 units=km Linecode=1PH-2_ACSRxx2_ACSR                
New Line.LN5774480-1         bus1=M1069567.2          bus2=M1069582.2          length=0.1529554   units=km Linecode=1PH-x4_ACSRx4_ACSR                
New Line.LN5986938-3         bus1=N1140830.1          bus2=L3216351.1          length=0.00873965  units=km Linecode=1PH-4_ACSRxx4_ACSR                
New Line.LN5894230-1         bus1=L2952007.3          bus2=L2861158.3          length=0.12654648  units=km Linecode=1PH-xx4_ACSR4_ACSR                
New Line.LN5683858-3         bus1=N1140827            bus2=M1026726            length=0.017268995 units=km Linecode=3PH_H-4_ACSR4_ACSR4_ACSR4_ACSR          
New Line.LN5920279-5         bus1=L2730106            bus2=N1142099            length=0.022369032 units=km Linecode=3PH_H-397_ACSR397_ACSR397_ACSR2/0_ACSR  
New Line.LN6439600-1         bus1=M1026658.1          bus2=L3172805.1          length=0.10668036  units=km Linecode=1PH-2_ACSRxx2_ACSR                
New Line.LN5589097-1         bus1=P895112.1           bus2=L3048962.1          length=0.025604159 units=km Linecode=1PH-2_ACSRxx4_ACSR                
New Line.LN5651975-1         bus1=L2991914            bus2=M1047503            length=0.035650057 units=km Linecode=3PH_H-4_ACSR4_ACSR4_ACSR4_ACSR          
New Line.LN5865236-1         bus1=M1047751.1          bus2=L2973154.1          length=0.00930772  units=km Linecode=1PH-4_ACSRxx4_ACSR                
New Line.LN5593232-1         bus1=L3010565.3          bus2=L2897775.3          length=0.14082596  units=km Linecode=1PH-xx2_ACSR2_ACSR                
New Line.LN5740283-1         bus1=M1125955.3          bus2=M1125957.3          length=0.00682612  units=km Linecode=1PH-xx4_WPAL4_WPAL                
New Line.LN6106559-1         bus1=M1069640.2          bus2=L2804269.2          length=0.10114503  units=km Linecode=1PH-x4_ACSRx4_ACSR                
New Line.LN5714056-3         bus1=M1026702            bus2=N1139551            length=0.12873466  units=km Linecode=3PH_H-4_ACSR4_ACSR4_ACSR4_WPAL          
New Line.LN5985355-3         bus1=N1136355.2          bus2=L2783231.2          length=0.072454801 units=km Linecode=1PH-x4_WPALx4_WPAL                
New Line.LN5531956-1         bus1=L2748143.1          bus2=L3251854.1          length=0.067056078 units=km Linecode=1PH-2_ACSRxx2_ACSR                
New Line.LN5650048-1         bus1=M1069610.2          bus2=M1069600.2          length=0.060959705 units=km Linecode=1PH-x2_ACSRx2_ACSR                
New Line.LN6290203-1         bus1=M1069424            bus2=L2935549            length=0.088596305 units=km Linecode=3PH_H-2/0_ACSR2/0_ACSR2/0_ACSR2_ACSR    
New Line.LN6134414-1         bus1=P895089.3           bus2=L3235242.3          length=0.060507038 units=km Linecode=1PH-xx2_ACSR2_ACSR                
New Line.LN6259998-2         bus1=M1026795.3          bus2=N1140522.3          length=0.013557509 units=km Linecode=1PH-xx2_ACSR2_ACSR                
New Line.LN6078767-1         bus1=L3030199            bus2=M1125934            length=0.029294768 units=km Linecode=3PH_H-397_ACSR397_ACSR397_ACSR2/0_ACSR  
New Line.LN6017300-1         bus1=M1069189.3          bus2=L2860487.3          length=0.086987129 units=km Linecode=1PH-xx4_WPAL4_WPAL                
New Line.LN8979257-2         bus1=221-312488          bus2=M1089183            length=0.013516796 units=km linecode=3P_1/0_AXNJ_DB                          
New Line.LN81048109-1        bus1=M1108464.2          bus2=L3102286.2          length=0.10745557  units=km linecode=1P_1/0_AXNJ_DB                          
New Line.293471              bus1=F739845             bus2=293471              length=0.03048     units=km Linecode=3PH_H-4_ACSR4_ACSR4_ACSR4_ACSR          
New Line.LN5534965-2         bus1=P827499.1           bus2=N1139254.1          length=0.006376053 units=km Linecode=1PH-4_ACSRxx4_ACSR                
New Line.LN5655683-1         bus1=M1026657.1          bus2=M1026656.1          length=0.006010467 units=km Linecode=1PH-4_ACSRxx4_ACSR                
New Line.LN5686247-1         bus1=M1108299.2          bus2=M1108300.2          length=0.006796901 units=km Linecode=1PH-x4_ACSRx4_ACSR                
New Line.LN6048642-1         bus1=L3198355.2          bus2=L2805037.2          length=0.11081571  units=km Linecode=1PH-x4_WPALx4_WPAL                
New Line.LN5928544-3         bus1=N1137994.3          bus2=M1069484.3          length=0.05637094  units=km Linecode=1PH-xx4_WPAL4_ACSR                
New Line.LN6108172-1         bus1=L2860504.1          bus2=L2860493.1          length=0.20838125  units=km Linecode=1PH-2_ACSRxx2_ACSR                
New Line.LN5532754-1         bus1=M1026783            bus2=M1026780            length=0.017916335 units=km Linecode=3PH_H-4_ACSR4_ACSR4_ACSR4_WPAL          
New Line.LN5591834-1         bus1=P895111.3           bus2=L2895496.3          length=0.069855343 units=km Linecode=1PH-xx2_ACSR2_ACSR                
New Line.LN6347196-2         bus1=N1140819            bus2=M1026700            length=0.026930613 units=km Linecode=3PH_H-4_ACSR4_ACSR4_ACSR4_WPAL          
New Line.LN5532741-1         bus1=M1089173.3          bus2=L2935551.3          length=0.060857652 units=km Linecode=1PH-xx4_WPAL4_WPAL                
New Line.LN5804803-1         bus1=M1026344.1          bus2=M1026364.1          length=0.29464985  units=km Linecode=1PH-2_ACSRxx2_ACSR                
New Line.LN6169248-1         bus1=L2879070            bus2=L3216345            length=0.089300859 units=km Linecode=3PH_H-2/0_ACSR2/0_ACSR2/0_ACSR2_ACSR    
New Line.LN5532786-2         bus1=M1069428.2          bus2=N1139257.2          length=0.016476581 units=km Linecode=1PH-x2_ACSRx1/0_TPX               
New Line.LN5744339-1         bus1=L2991919.1          bus2=M1026361.1          length=0.085291161 units=km Linecode=1PH-4_WPALxx4_ACSR                
New Line.LN5531255-3         bus1=N1147857.1          bus2=M1009742.1          length=0.054752983 units=km Linecode=1PH-4_ACSRxx4_ACSR                
New Line.LN5926308-2         bus1=Q14412              bus2=M1047325            length=0.033944982 units=km Linecode=3PH_H-4_ACSR4_ACSR4_ACSR4_ACSR          
New Line.LN5683856-3         bus1=N1139263.1          bus2=L3048227.1          length=0.025986896 units=km Linecode=1PH-4_ACSRxx4_ACSR                
New Line.LN6171502-1         bus1=P827506.1           bus2=M1069469.1          length=0.007050168 units=km Linecode=1PH-4_ACSRxx4_ACSR                
New Line.LN5593228-1         bus1=M1027019.2          bus2=L2785522.2          length=0.060390635 units=km Linecode=1PH-x2_ACSRx2_ACSR                


New Line.LN6380800-1         bus1=L3216338.2          bus2=L2973146.2          length=0.058581136 units=km Linecode=1PH-x2_ACSRx2_ACSR                
New Line.LN6199525-2         bus1=M3037452.1          bus2=L2973164.1          length=0.071451786 units=km Linecode=1PH-4_ACSRxx4_ACSR                
New Line.LN5772710-2         bus1=L3120376.1          bus2=M1026925.1          length=0.089332548 units=km Linecode=1PH-4_ACSRxx4_WPAL                
New Line.LN8961760-1         bus1=M1047612.3          bus2=P828360.3           length=0.005371644 units=km linecode=1P_1/0_AXNJ_DB                          
New Line.LN6047556-1         bus1=M1089195.3          bus2=L3141393.3          length=0.11273397  units=km Linecode=1PH-xx2_ACSR2_ACSR                
New Line.LN6138603-1         bus1=M1026946.2          bus2=M1026940.2          length=0.12856984  units=km Linecode=1PH-x4_ACSRx4_ACSR                
New Line.LN6108139-1         bus1=M1047471.2          bus2=L3216349.2          length=0.0183997   units=km Linecode=1PH-x2_ACSRx2_ACSR                
New Line.LN6388581-2         bus1=M1047401.1          bus2=L2748132.1          length=0.056056234 units=km Linecode=1PH-4_ACSRxx4_ACSR                
New Line.LN5774460-1         bus1=L3122820.1          bus2=L3141398.1          length=0.059408725 units=km Linecode=1PH-2_ACSRxx2_ACSR                
New Line.LN5624387-1         bus1=M1108360.3          bus2=L3048968.3          length=0.05497669  units=km Linecode=1PH-xx4_ACSR4_ACSR                
New Line.LN6137087-1         bus1=L2801950.3          bus2=M1069224.3          length=0.032899004 units=km Linecode=1PH-xx4_ACSR1/0_TPX               
New Line.LN6077809-1         bus1=L2766746.3          bus2=M1027073.3          length=0.11047955  units=km Linecode=1PH-xx2_ACSR2_ACSR                
New Line.LN6440079-1         bus1=L2895496.3          bus2=M1142873.3          length=0.050561264 units=km Linecode=1PH-xx2_ACSR2_ACSR                
New Line.LN5804794-1         bus1=M1069181.1          bus2=L2973151.1          length=0.075432644 units=km Linecode=1PH-4_ACSRxx4_ACSR                
New Line.LN5654484-1         bus1=L3179682.3          bus2=L2786274.3          length=0.027728997 units=km Linecode=1PH-xx4_ACSR4_ACSR                
New Line.LN5774465-1         bus1=L3066816.1          bus2=M1026667.1          length=0.12146238  units=km Linecode=1PH-2_ACSRxx2_ACSR                
New Line.LN5473349-1         bus1=M1108529            bus2=M1108532            length=0.024808926 units=km Linecode=3PH_H-397_ACSR397_ACSR397_ACSR2/0_ACSR  
New Line.LN6169253-1         bus1=L2766723.1          bus2=L3122822.1          length=0.057158143 units=km Linecode=1PH-4_ACSRxx4_ACSR                
New Line.LN6350536-1         bus1=L2673312.1          bus2=L3235247.1          length=0.16625327  units=km Linecode=1PH-2_ACSRxx2_ACSR                
New Line.LN6048523-1         bus1=M1166391.3          bus2=L3254873.3          length=0.1061747   units=km Linecode=1PH-xx4_WPAL4_ACSR                
New Line.LN5594152-1         bus1=L2861157.3          bus2=P901951.3           length=0.12134881  units=km Linecode=1PH-xx2_ACSR2_ACSR                
New Line.LN5865248-1         bus1=M1047346            bus2=M1047345            length=0.043145742 units=km Linecode=3PH_H-4_WPAL4_WPAL4_WPAL4_ACSR          
New Line.LN6046143-1         bus1=L2989596.2          bus2=L2822873.2          length=0.088615313 units=km Linecode=1PH-x4_WPALx4_ACSR                
New Line.LN5803287-1         bus1=M1108328.3          bus2=L2875754.3          length=0.021267162 units=km Linecode=1PH-xx2_ACSR2_ACSR                
New Line.LN5589094-1         bus1=L2786204.3          bus2=M1209819.3          length=0.072043559 units=km Linecode=1PH-xx4_ACSR4_ACSR                
New Line.LN5954983-1         bus1=P901972.1           bus2=M1009726.1          length=0.090083252 units=km Linecode=1PH-4_WPALxx4_WPAL                
New Line.LN5924696-2         bus1=M1047702.1          bus2=N1137001.1          length=0.042663027 units=km Linecode=1PH-2_ACSRxx2_ACSR                
New Line.LN6506311-4         bus1=L2767340            bus2=M3037449            length=0.001937451 units=km Linecode=3PH_H-4_WPAL4_WPAL4_WPAL4_WPAL          
New Line.LN5653493-1         bus1=M1047457.2          bus2=L2710546.2          length=0.040119548 units=km Linecode=1PH-x2_ACSRx2_ACSR                
New Line.LN5684836-1         bus1=L2674027            bus2=L2692633            length=0.067881777 units=km Linecode=3PH_H-397_ACSR397_ACSR397_ACSR2/0_ACSR  
New Line.LN5715016-3         bus1=N1142108.1          bus2=L2674051.1          length=0.073678618 units=km Linecode=1PH-2_ACSRxx2_ACSR                
New Line.LN6138614-1         bus1=M1069135            bus2=R18242              length=0.070990263 units=km Linecode=3PH_H-4_WPAL4_WPAL4_WPAL4_WPAL          
New Line.LN6077781-2         bus1=M1047534            bus2=N1136663            length=0.11473566  units=km Linecode=3PH_H-2/0_ACSR2/0_ACSR2/0_ACSR2_ACSR    
New Line.LN5675121-1         bus1=M1108508.3          bus2=L3097861.3          length=0.091439774 units=km Linecode=1PH-xx2_ACSR2_ACSR                
New Line.LN5773046-1         bus1=M1069560.2          bus2=M1069567.2          length=0.081428218 units=km Linecode=1PH-x4_ACSRx4_ACSR                
New Line.LN6380809-2         bus1=L2973153            bus2=N1136998            length=0.010528536 units=km Linecode=3PH_H-4_WPAL4_WPAL4_WPAL4_WPAL          
New Line.LN6018326-1         bus1=L2898515.3          bus2=M1166387.3          length=0.059605868 units=km Linecode=1PH-xx4_ACSR4_ACSR                
New Line.LN5472356-1         bus1=M1047442.2          bus2=L3235250.2          length=0.064500287 units=km Linecode=1PH-x4_WPALx4_WPAL                
New Line.LN6139641-1         bus1=M1142871            bus2=M1142874            length=0.038152689 units=km Linecode=3PH_H-397_ACSR397_ACSR397_ACSR2/0_ACSR  
New Line.LN6018341-1         bus1=L2955081            bus2=M1108315            length=0.094684869 units=km Linecode=3PH_H-397_ACSR397_ACSR397_ACSR2/0_ACSR  
New Line.LN6017302-1         bus1=L2973162            bus2=M1026333            length=0.053150629 units=km Linecode=3PH_H-4_WPAL4_WPAL4_WPAL4_ACSR          
New Line.LN6199505-1         bus1=M1009832.2          bus2=L2860479.2          length=0.036046786 units=km Linecode=1PH-x4_ACSRx4_ACSR                
New Line.LN5682327-1         bus1=M1026854.1          bus2=P901894.1           length=0.005924616 units=km Linecode=1PH-4_ACSRxx4_ACSR                