clock {
	timezone PST+8PDT;
	starttime '2011-05-01 00:00:00';
	stoptime '2011-05-21 20:00:00';
};

#set minimum_timestep=3600;
#set profiler=1;
#set relax_naming_rules=1;
module generators;
module tape;
module residential {
	implicit_enduses NONE;
};

module powerflow {
	solver_method NR;
	NR_iteration_limit 50;
};

object node {
	phases ABCN;
	name FRIENDSHIP;
	bustype SWING;
	nominal_voltage 7200.0;
};

object regulator_configuration {
	Control OUTPUT_VOLTAGE;
	Type A;
	raise_taps 16.0;
	name REG27-CONFIG;
	band_center 7500.0;
	current_transducer_ratio 328;
	tap_pos_B 1;
	tap_pos_C 1;
	time_delay 30.0;
	connect_type WYE_WYE;
	regulation 0.1;
	CT_phase ABC;
	power_transducer_ratio 60.0;
	lower_taps 16.0;
	tap_pos_A 1;
	control_level INDIVIDUAL;
	PT_phase ABC;
	band_width 100.0;
};

object regulator {
	phases ACB;
	from FRIENDSHIP;
	name REG27;
	to node958175REG27;
	configuration REG27-CONFIG;
	groupid swingKids;
};

object underground_line {
	phases ACB;
	from node958175REG27;
	name 958175;
	to nodeRFRN1-R0001x1958175;
	length 24;
	configuration 978204-LINECONFIG;
};

object fuse {
	phases ACB;
	from nodeRFRN1-R0001x1958175;
	name RFRN1-R0001x1;
	current_limit 9999.0 A;
	to node958178RFRN1-R0001x1;
};

object underground_line {
	phases ACB;
	from node958178RFRN1-R0001x1;
	name 958178;
	to node958179958178;
	length 780;
	configuration 978204-LINECONFIG;
};

object underground_line {
	phases ACB;
	from node958179958178;
	name 958179;
	to node978195958179;
	length 860;
	configuration 978204-LINECONFIG;
};

object underground_line_conductor {
	conductor_gmr 0.02603;
	insulation_relative_permitivitty 2.4;
	conductor_resistance 0.23232;
	shield_resistance 0.000000;
	neutral_gmr 0.0317574;
	outer_diameter 1.580004;
	neutral_strands 16;
	neutral_resistance 702.24;
	neutral_diameter 0.160008;
	conductor_diameter 0.810000;
	shield_gmr 0.000000;
	name 978195-LINECONFIGunderground_line_conductor604;
};

object underground_line {
	phases ACB;
	from node978195958179;
	name 978195;
	to node978172978195;
	length 1970;
	configuration 978204-LINECONFIG;
};

object underground_line {
	phases ACB;
	from node978172978195;
	name 978172;
	to node978174978172;
	length 780;
	configuration 978204-LINECONFIG;
};

object underground_line {
	phases B;
	from node978174978172;
	name 978174;
	to nodeF28653x1978174;
	length 30;
	configuration 929369-LINECONFIG;
};

object fuse {
	phases B;
	from nodeF28653x1978174;
	name F28653x1;
	current_limit 9999.0 A;
	to node978192F28653x1;
};

object underground_line {
	phases B;
	from node978192F28653x1;
	name 978192;
	to node949317978192;
	length 40;
	configuration 929369-LINECONFIG;
};

object underground_line {
	phases B;
	from node949317978192;
	name 949317;
	to node949318949317;
	length 469;
	configuration 929369-LINECONFIG;
};

object underground_line {
	phases B;
	from node949318949317;
	name 949318;
	to nodeT14104949318;
	length 519;
	configuration 929369-LINECONFIG;
};

object underground_line {
	phases B;
	from node949318949317;
	name 949319;
	to nodeT14100949319;
	length 40;
	configuration 929369-LINECONFIG;
};

object underground_line {
	phases C;
	from node978174978172;
	name 978200;
	to nodeR2911x1978200;
	length 314;
	configuration 970069-LINECONFIG;
};

object fuse {
	phases C;
	from nodeR2911x1978200;
	name R2911x1;
	current_limit 9999.0 A;
	to node839461R2911x1;
};

object overhead_line {
	phases CN;
	from node839461R2911x1;
	name 839461;
	to node839464839461;
	length 60;
	configuration 840428-LINECONFIG;
};

object overhead_line {
	phases CN;
	from node839464839461;
	name 839464;
	to node839466839464;
	length 111;
	configuration 840428-LINECONFIG;
};

object overhead_line {
	phases CN;
	from node839466839464;
	name 839466;
	to node839469839466;
	length 207;
	configuration 840428-LINECONFIG;
};

object overhead_line {
	phases CN;
	from node839469839466;
	name 839469;
	to node839471839469;
	length 226;
	configuration 840428-LINECONFIG;
};

object overhead_line {
	phases CN;
	from node839471839469;
	name 839471;
	to node956777839471;
	length 120;
	configuration 840428-LINECONFIG;
};

object overhead_line {
	phases CN;
	from node956777839471;
	name 956777;
	to node839473956777;
	length 130;
	configuration 840428-LINECONFIG;
};

object overhead_line {
	phases CN;
	from node839473956777;
	name 839473;
	to node839475839473;
	length 226;
	configuration 840428-LINECONFIG;
};

object overhead_line {
	phases CN;
	from node839475839473;
	name 839475;
	to node839477839475;
	length 262;
	configuration 840428-LINECONFIG;
};

object overhead_line {
	phases CN;
	from node839477839475;
	name 839477;
	to node839479839477;
	length 81;
	configuration 840428-LINECONFIG;
};

object overhead_line {
	phases CN;
	from node839479839477;
	name 839479;
	to node839481839479;
	length 243;
	configuration 840428-LINECONFIG;
};

object overhead_line {
	phases CN;
	from node839481839479;
	name 839481;
	to node839483839481;
	length 183;
	configuration 840428-LINECONFIG;
};

object overhead_line {
	phases CN;
	from node839483839481;
	name 839483;
	to node839484839483;
	length 98;
	configuration 840428-LINECONFIG;
};

object overhead_line {
	phases CN;
	from node839484839483;
	name 839484;
	to node839486839484;
	length 10;
	configuration 840428-LINECONFIG;
};

object overhead_line {
	phases CN;
	from node839486839484;
	name 839486;
	to node839488839486;
	length 223;
	configuration 840428-LINECONFIG;
};

object overhead_line {
	phases CN;
	from node839488839486;
	name 839488;
	to node839490839488;
	length 219;
	configuration 840428-LINECONFIG;
};

object overhead_line {
	phases CN;
	from node839490839488;
	name 839490;
	to node839491839490;
	length 178;
	configuration 840428-LINECONFIG;
};

object overhead_line {
	phases CN;
	from node839491839490;
	name 839491;
	to node974130839491;
	length 135;
	configuration 840428-LINECONFIG;
};

object overhead_line {
	phases CN;
	from node974130839491;
	name 974130;
	to node839493974130;
	length 120;
	configuration 840428-LINECONFIG;
};

object overhead_line {
	phases CN;
	from node839493974130;
	name 839493;
	to node839496839493;
	length 261;
	configuration 840428-LINECONFIG;
};

object overhead_line {
	phases CN;
	from node839496839493;
	name 839496;
	to node839497839496;
	length 56;
	configuration 840428-LINECONFIG;
};

object overhead_line {
	phases CN;
	from node839497839496;
	name 839497;
	to node839499839497;
	length 191;
	configuration 840428-LINECONFIG;
};

object overhead_line {
	phases CN;
	from node839499839497;
	name 839499;
	to node839502839499;
	length 223;
	configuration 840428-LINECONFIG;
};

object overhead_line {
	phases CN;
	from node839502839499;
	name 839502;
	to node839503839502;
	length 91;
	configuration 840428-LINECONFIG;
};

object overhead_line {
	phases C;
	from node839503839502;
	name 839503;
	to node839505839503;
	length 134;
	configuration 840428-LINECONFIG;
};

object underground_line {
	phases C;
	from node839505839503;
	name 839505;
	to nodeFFRN1-F008x1839505;
	length 18;
	configuration 906381-LINECONFIG;
};

object fuse {
	phases C;
	from nodeFFRN1-F008x1839505;
	name FFRN1-F008x1;
	current_limit 9999.0 A;
	to node839506FFRN1-F008x1;
};

object underground_line {
	phases C;
	from node839506FFRN1-F008x1;
	name 839506;
	to node839509839506;
	length 65;
	configuration 906381-LINECONFIG;
};

object underground_line {
	phases C;
	from node839509839506;
	name 839509;
	to node839511839509;
	length 136;
	configuration 906381-LINECONFIG;
};

object underground_line {
	phases C;
	from node839511839509;
	name 839511;
	to node839512839511;
	length 53;
	configuration 906381-LINECONFIG;
};

object underground_line {
	phases C;
	from node839512839511;
	name 839512;
	to node839514839512;
	length 206;
	configuration 906381-LINECONFIG;
};

object underground_line {
	phases C;
	from node839514839512;
	name 839514;
	to node910237839514;
	length 184;
	configuration 906381-LINECONFIG;
};

object underground_line {
	phases C;
	from node910237839514;
	name 910237;
	to node906381910237;
	length 129;
	configuration 906381-LINECONFIG;
};

object line_configuration {
	spacing 841826-LINESPACING;
	name 906381-LINECONFIG;
	conductor_C 841826-LINECONFIGunderground_line_conductor393204;
};

object underground_line {
	phases C;
	from node906381910237;
	name 906381;
	to node839516906381;
	length 134;
	configuration 906381-LINECONFIG;
};

object underground_line {
	phases C;
	from node839516906381;
	name 839516;
	to node839517839516;
	length 40;
	configuration 906381-LINECONFIG;
};

object underground_line {
	phases C;
	from node839517839516;
	name 839517;
	to node839519839517;
	length 165;
	configuration 906381-LINECONFIG;
};

object underground_line {
	phases C;
	from node839519839517;
	name 839519;
	to node839521839519;
	length 174;
	configuration 906381-LINECONFIG;
};

object underground_line {
	phases C;
	from node839521839519;
	name 839521;
	to node1806-0087839521;
	length 331;
	configuration 906381-LINECONFIG;
};

object underground_line {
	phases C;
	from node906381910237;
	name 906382;
	to nodeT4303906382;
	length 194;
	configuration 970069-LINECONFIG;
};

object underground_line {
	phases C;
	from node910237839514;
	name 910238;
	to nodeT4006910238;
	length 204;
	configuration 970069-LINECONFIG;
};

object underground_line {
	phases C;
	from node839512839511;
	name 970774;
	to nodeT28678970774;
	length 80;
	configuration 970069-LINECONFIG;
};

object line_configuration {
	name 978204-LINECONFIG;
	spacing 917232-LINESPACING;
	conductor_A 978195-LINECONFIGunderground_line_conductor604;
	conductor_C 978195-LINECONFIGunderground_line_conductor604;
	conductor_B 978195-LINECONFIGunderground_line_conductor604;
};

object underground_line {
	phases ACB;
	from node978174978172;
	name 978204;
	to node978186978204;
	length 66;
	configuration 978204-LINECONFIG;
};

object overhead_line {
	phases ACBN;
	from node978186978204;
	name 978186;
	to node978169978186;
	length 270;
	configuration 978187-LINECONFIG;
};

object overhead_line {
	phases ACBN;
	from node978169978186;
	name 978169;
	to node978180978169;
	length 230;
	configuration 978187-LINECONFIG;
};

object overhead_line {
	phases ACBN;
	from node978180978169;
	name 978180;
	to node978184978180;
	length 180;
	configuration 978187-LINECONFIG;
};

object overhead_line {
	phases ACBN;
	from node978184978180;
	name 978184;
	to node978198978184;
	length 188;
	configuration 978187-LINECONFIG;
};

object overhead_line {
	phases ACBN;
	from node978198978184;
	name 978198;
	to node978173978198;
	length 297;
	configuration 978187-LINECONFIG;
};

object overhead_line {
	phases ACBN;
	from node978173978198;
	name 978173;
	to node978185978173;
	length 225;
	configuration 978187-LINECONFIG;
};

object overhead_line_conductor {
	geometric_mean_radius 0.0304;
	diameter 0.721;
	resistance 0.216;
	name 978185_conductor_B;
};

object overhead_line {
	phases ACBN;
	from node978185978173;
	name 978185;
	to node978190978185;
	length 225;
	configuration 978187-LINECONFIG;
};

object overhead_line {
	phases ACBN;
	from node978190978185;
	name 978190;
	to node978196978190;
	length 225;
	configuration 978187-LINECONFIG;
};

object overhead_line {
	phases ACBN;
	from node978196978190;
	name 978196;
	to node978178978196;
	length 225;
	configuration 978187-LINECONFIG;
};

object overhead_line {
	phases ACBN;
	from node978178978196;
	name 978178;
	to node978171978178;
	length 280;
	configuration 978187-LINECONFIG;
};

object overhead_line {
	phases ACBN;
	from node978171978178;
	name 978171;
	to node978175978171;
	length 250;
	configuration 978187-LINECONFIG;
};

object overhead_line {
	phases ACBN;
	from node978175978171;
	name 978175;
	to node978181978175;
	length 225;
	configuration 978187-LINECONFIG;
};

object overhead_line {
	phases ACBN;
	from node978181978175;
	name 978181;
	to node978197978181;
	length 225;
	configuration 978187-LINECONFIG;
};

object overhead_line {
	phases ACBN;
	from node978197978181;
	name 978197;
	to node978176978197;
	length 225;
	configuration 978187-LINECONFIG;
};

object overhead_line {
	phases ACBN;
	from node978176978197;
	name 978176;
	to node978189978176;
	length 203;
	configuration 978187-LINECONFIG;
};

object overhead_line {
	phases ACBN;
	from node978189978176;
	name 978189;
	to node978202978189;
	length 203;
	configuration 978187-LINECONFIG;
};

object overhead_line {
	phases ACBN;
	from node978202978189;
	name 978202;
	to node978182978202;
	length 203;
	configuration 978187-LINECONFIG;
};

object overhead_line {
	phases BN;
	from node978182978202;
	name 978182;
	to node978177978182;
	length 75;
	configuration 985054-LINECONFIG;
};

object overhead_line {
	phases BN;
	from node978177978182;
	name 978177;
	to node841713978177;
	length 82;
	configuration 985054-LINECONFIG;
};

object overhead_line {
	phases B;
	from node841713978177;
	name 841713;
	to nodeR2909x1841713;
	length 10;
	configuration 985054-LINECONFIG;
};

object fuse {
	phases B;
	from nodeR2909x1841713;
	name R2909x1;
	current_limit 9999.0 A;
	to node841714R2909x1;
};

object overhead_line {
	phases BN;
	from node841714R2909x1;
	name 841714;
	to node841715841714;
	length 509;
	configuration 985054-LINECONFIG;
};

object overhead_line {
	phases BN;
	from node841715841714;
	name 841715;
	to node969649841715;
	length 40;
	configuration 985054-LINECONFIG;
};

object overhead_line {
	phases BN;
	from node969649841715;
	name 969649;
	to node841718969649;
	length 440;
	configuration 985054-LINECONFIG;
};

object overhead_line {
	phases BN;
	from node841718969649;
	name 841718;
	to node841719841718;
	length 1043;
	configuration 985054-LINECONFIG;
};

object overhead_line {
	phases BN;
	from node841719841718;
	name 841719;
	to node841720841719;
	length 290;
	configuration 985054-LINECONFIG;
};

object overhead_line {
	phases BN;
	from node841720841719;
	name 841720;
	to node841722841720;
	length 233;
	configuration 985054-LINECONFIG;
};

object overhead_line {
	phases BN;
	from node841722841720;
	name 841722;
	to node841723841722;
	length 143;
	configuration 985054-LINECONFIG;
};

object overhead_line {
	phases B;
	from node841723841722;
	name 841723;
	to nodeFFRN1-F011x1841723;
	length 75;
	configuration 985054-LINECONFIG;
};

object fuse {
	phases B;
	from nodeFFRN1-F011x1841723;
	name FFRN1-F011x1;
	current_limit 9999.0 A;
	to node841724FFRN1-F011x1;
};

object underground_line {
	phases B;
	from node841724FFRN1-F011x1;
	name 841724;
	to node841725841724;
	length 81;
	configuration 841826-LINECONFIG;
};

object underground_line {
	phases B;
	from node841725841724;
	name 841725;
	to node1806-0099841725;
	length 135;
	configuration 841826-LINECONFIG;
};

object overhead_line {
	phases B;
	from node841723841722;
	name 841739;
	to node1806-28-011841739;
	length 331;
	configuration 985054-LINECONFIG;
};

object overhead_line {
	phases BN;
	from node841723841722;
	name 841740;
	to node841727841740;
	length 356;
	configuration 985054-LINECONFIG;
};

object underground_line {
	phases B;
	from node841727841740;
	name 841727;
	to nodeF18526x1841727;
	length 30;
	configuration 841826-LINECONFIG;
};

object fuse {
	phases B;
	from nodeF18526x1841727;
	name F18526x1;
	current_limit 9999.0 A;
	to node939255F18526x1;
};

object underground_line {
	phases B;
	from node939255F18526x1;
	name 939255;
	to node841728939255;
	length 281;
	configuration 841826-LINECONFIG;
};

object underground_line {
	phases B;
	from node841728939255;
	name 841728;
	to node1806-0098841728;
	length 254;
	configuration 841826-LINECONFIG;
};

object overhead_line {
	phases BN;
	from node841727841740;
	name 939235;
	to node841734939235;
	length 338;
	configuration 985054-LINECONFIG;
};

object underground_line {
	phases B;
	from node841734939235;
	name 841734;
	to nodeF18527x1841734;
	length 16;
	configuration 841826-LINECONFIG;
};

object fuse {
	phases B;
	from nodeF18527x1841734;
	name F18527x1;
	current_limit 9999.0 A;
	to node939275F18527x1;
};

object underground_line {
	phases B;
	from node939275F18527x1;
	name 939275;
	to node841736939275;
	length 312;
	configuration 841826-LINECONFIG;
};

object underground_line {
	phases B;
	from node841736939275;
	name 841736;
	to nodeT18549841736;
	length 126;
	configuration 841826-LINECONFIG;
};

object overhead_line {
	phases BN;
	from node841734939235;
	name 841742;
	to node841744841742;
	length 565;
	configuration 985054-LINECONFIG;
};

object overhead_line {
	phases BN;
	from node841744841742;
	name 841744;
	to node841748841744;
	length 302;
	configuration 985054-LINECONFIG;
};

object overhead_line {
	phases B;
	from node841748841744;
	name 841748;
	to node923535841748;
	length 869;
	configuration 985054-LINECONFIG;
};

object underground_line {
	phases B;
	from node923535841748;
	name 923535;
	to node923536923535;
	length 20;
	configuration 929369-LINECONFIG;
};

object underground_line {
	phases B;
	from node923536923535;
	name 923536;
	to node841999923536;
	length 1275;
	configuration 929369-LINECONFIG;
};

object underground_line {
	phases B;
	from node841999923536;
	name 841999;
	to nodeT10512841999;
	length 510;
	configuration 929369-LINECONFIG;
};

object underground_line {
	phases B;
	from node841999923536;
	name 923537;
	to nodeT10513923537;
	length 465;
	configuration 929369-LINECONFIG;
};

object underground_line {
	phases B;
	from node841999923536;
	name 923538;
	to node841997923538;
	length 1385;
	configuration 929369-LINECONFIG;
};

object underground_line {
	phases B;
	from node841997923538;
	name 841997;
	to nodeT10515841997;
	length 1271;
	configuration 929369-LINECONFIG;
};

object underground_line {
	phases B;
	from node923536923535;
	name 923594;
	to node923593923594;
	length 134;
	configuration 929369-LINECONFIG;
};

object overhead_line {
	phases BN;
	from node923593923594;
	name 923593;
	to node841751923593;
	length 304;
	configuration 985054-LINECONFIG;
};

object underground_line {
	phases B;
	from node841751923593;
	name 841751;
	to nodeFFRN1-F081x1841751;
	length 104;
	configuration 929369-LINECONFIG;
};

object fuse {
	phases B;
	from nodeFFRN1-F081x1841751;
	name FFRN1-F081x1;
	current_limit 9999.0 A;
	to node841752FFRN1-F081x1;
};

object underground_line {
	phases B;
	from node841752FFRN1-F081x1;
	name 841752;
	to node1806-0198841752;
	length 604;
	configuration 929369-LINECONFIG;
};

object overhead_line {
	phases BN;
	from node841751923593;
	name 841754;
	to node841755841754;
	length 71;
	configuration 985054-LINECONFIG;
};

object overhead_line {
	phases BN;
	from node841755841754;
	name 841755;
	to node841757841755;
	length 208;
	configuration 985054-LINECONFIG;
};

object overhead_line {
	phases BN;
	from node841757841755;
	name 841757;
	to node841759841757;
	length 334;
	configuration 985054-LINECONFIG;
};

object overhead_line {
	phases BN;
	from node841759841757;
	name 841759;
	to node841760841759;
	length 352;
	configuration 985054-LINECONFIG;
};

object overhead_line {
	phases BN;
	from node841760841759;
	name 841760;
	to node841762841760;
	length 210;
	configuration 985054-LINECONFIG;
};

object overhead_line {
	phases BN;
	from node841762841760;
	name 841762;
	to node841763841762;
	length 31;
	configuration 985054-LINECONFIG;
};

object underground_line {
	phases B;
	from node841763841762;
	name 841763;
	to nodeFFRN1-F140x1841763;
	length 18;
	configuration 929369-LINECONFIG;
};

object fuse {
	phases B;
	from nodeFFRN1-F140x1841763;
	name FFRN1-F140x1;
	current_limit 9999.0 A;
	to node841764FFRN1-F140x1;
};

object underground_line {
	phases B;
	from node841764FFRN1-F140x1;
	name 841764;
	to node1806-0062841764;
	length 400;
	configuration 929369-LINECONFIG;
};

object overhead_line {
	phases BN;
	from node841763841762;
	name 841766;
	to node841767841766;
	length 352;
	configuration 985054-LINECONFIG;
};

object underground_line {
	phases B;
	from node841767841766;
	name 841767;
	to nodeFFRN1-F176x1841767;
	length 54;
	configuration 929369-LINECONFIG;
};

object fuse {
	phases B;
	from nodeFFRN1-F176x1841767;
	name FFRN1-F176x1;
	current_limit 9999.0 A;
	to node841768FFRN1-F176x1;
};

object underground_line {
	phases B;
	from node841768FFRN1-F176x1;
	name 841768;
	to node1806-0088841768;
	length 577;
	configuration 929369-LINECONFIG;
};

object overhead_line {
	phases BN;
	from node841767841766;
	name 841770;
	to node923342841770;
	length 342;
	configuration 985054-LINECONFIG;
};

object overhead_line {
	phases BN;
	from node923342841770;
	name 923342;
	to node841771923342;
	length 136;
	configuration 985054-LINECONFIG;
};

object underground_line {
	phases B;
	from node841771923342;
	name 841771;
	to nodeFFRN1-F196x1841771;
	length 197;
	configuration 929369-LINECONFIG;
};

object fuse {
	phases B;
	from nodeFFRN1-F196x1841771;
	name FFRN1-F196x1;
	current_limit 9999.0 A;
	to node841772FFRN1-F196x1;
};

object underground_line {
	phases B;
	from node841772FFRN1-F196x1;
	name 841772;
	to node1806-0190841772;
	length 210;
	configuration 929369-LINECONFIG;
};

object overhead_line {
	phases BN;
	from node841771923342;
	name 841775;
	to node926654841775;
	length 1192;
	configuration 985054-LINECONFIG;
};

object overhead_line {
	phases B;
	from node926654841775;
	name 926654;
	to node1806-33-057926654;
	length 1630;
	configuration 985054-LINECONFIG;
};

object underground_line {
	phases B;
	from node841755841754;
	name 841777;
	to nodeFFRN1-F217x1841777;
	length 96;
	configuration 929369-LINECONFIG;
};

object fuse {
	phases B;
	from nodeFFRN1-F217x1841777;
	name FFRN1-F217x1;
	current_limit 9999.0 A;
	to node841778FFRN1-F217x1;
};

object underground_line {
	phases B;
	from node841778FFRN1-F217x1;
	name 841778;
	to node1806-0245841778;
	length 646;
	configuration 929369-LINECONFIG;
};

object underground_line {
	phases B;
	from node923536923535;
	name 923596;
	to node923597923596;
	length 165;
	configuration 929369-LINECONFIG;
};

object underground_line {
	phases B;
	from node923597923596;
	name 923597;
	to nodeT10500923597;
	length 20;
	configuration 929369-LINECONFIG;
};

object underground_line {
	phases B;
	from node923597923596;
	name 923599;
	to node923601923599;
	length 300;
	configuration 929369-LINECONFIG;
};

object underground_line {
	phases B;
	from node923601923599;
	name 923601;
	to nodeT10502923601;
	length 200;
	configuration 929369-LINECONFIG;
};

object underground_line {
	phases B;
	from node923601923599;
	name 923604;
	to node923605923604;
	length 275;
	configuration 929369-LINECONFIG;
};

object underground_line {
	phases B;
	from node923605923604;
	name 923605;
	to node921618923605;
	length 239;
	configuration 929369-LINECONFIG;
};

object underground_line {
	phases B;
	from node921618923605;
	name 921618;
	to node921620921618;
	length 352;
	configuration 929369-LINECONFIG;
};

object underground_line {
	phases B;
	from node921620921618;
	name 921620;
	to node923606921620;
	length 122;
	configuration 929369-LINECONFIG;
};

object underground_line {
	phases B;
	from node923606921620;
	name 923606;
	to nodeT7804923606;
	length 300;
	configuration 929369-LINECONFIG;
};

object underground_line {
	phases B;
	from node923605923604;
	name 923607;
	to node913658923607;
	length 680;
	configuration 929369-LINECONFIG;
};

object underground_line {
	phases B;
	from node913658923607;
	name 913658;
	to nodeT4020913658;
	length 164;
	configuration 929369-LINECONFIG;
};

object underground_line {
	phases B;
	from node913658923607;
	name 914581;
	to node913607914581;
	length 346;
	configuration 929369-LINECONFIG;
};

object underground_line {
	phases B;
	from node913607914581;
	name 913607;
	to node923608913607;
	length 260;
	configuration 929369-LINECONFIG;
};

object underground_line {
	phases B;
	from node923608913607;
	name 923608;
	to node841793923608;
	length 1875;
	configuration 929369-LINECONFIG;
};

object underground_line {
	phases B;
	from node841793923608;
	name 841793;
	to node923610841793;
	length 252;
	configuration 841826-LINECONFIG;
};

object underground_line {
	phases B;
	from node923610841793;
	name 923610;
	to nodeT10505923610;
	length 20;
	configuration 929369-LINECONFIG;
};

object underground_line {
	phases B;
	from node841793923608;
	name 923609;
	to nodeT10506923609;
	length 677;
	configuration 841826-LINECONFIG;
};

object underground_line {
	phases B;
	from node841793923608;
	name 923611;
	to node923612923611;
	length 890;
	configuration 929369-LINECONFIG;
};

object underground_line {
	phases B;
	from node923612923611;
	name 923612;
	to node923614923612;
	length 890;
	configuration 929369-LINECONFIG;
};

object underground_line {
	phases B;
	from node923614923612;
	name 923614;
	to node981769923614;
	length 50;
	configuration 929369-LINECONFIG;
};

object overhead_line {
	phases BN;
	from node981769923614;
	name 981769;
	to node981766981769;
	length 240;
	configuration 985054-LINECONFIG;
};

object overhead_line {
	phases BN;
	from node981766981769;
	name 981766;
	to node981768981766;
	length 324;
	configuration 985054-LINECONFIG;
};

object overhead_line {
	phases BN;
	from node981768981766;
	name 981768;
	to node981775981768;
	length 360;
	configuration 985054-LINECONFIG;
};

object overhead_line {
	phases BN;
	from node981775981768;
	name 981775;
	to node981773981775;
	length 240;
	configuration 985054-LINECONFIG;
};

object overhead_line {
	phases BN;
	from node981773981775;
	name 981773;
	to node981765981773;
	length 360;
	configuration 985054-LINECONFIG;
};

object overhead_line {
	phases BN;
	from node981765981773;
	name 981765;
	to node981777981765;
	length 360;
	configuration 985054-LINECONFIG;
};

object overhead_line {
	phases BN;
	from node981777981765;
	name 981777;
	to node981783981777;
	length 272;
	configuration 985054-LINECONFIG;
};

object overhead_line {
	phases BN;
	from node981783981777;
	name 981783;
	to node981767981783;
	length 250;
	configuration 985054-LINECONFIG;
};

object overhead_line {
	phases BN;
	from node981767981783;
	name 981767;
	to node981781981767;
	length 300;
	configuration 985054-LINECONFIG;
};

object overhead_line {
	phases BN;
	from node981781981767;
	name 981781;
	to node981779981781;
	length 300;
	configuration 985054-LINECONFIG;
};

object overhead_line {
	phases BN;
	from node981779981781;
	name 981779;
	to node981772981779;
	length 294;
	configuration 985054-LINECONFIG;
};

object overhead_line {
	phases BN;
	from node981772981779;
	name 981772;
	to node981776981772;
	length 310;
	configuration 985054-LINECONFIG;
};

object overhead_line {
	phases BN;
	from node981776981772;
	name 981776;
	to node981774981776;
	length 300;
	configuration 985054-LINECONFIG;
};

object overhead_line {
	phases BN;
	from node981774981776;
	name 981774;
	to node981771981774;
	length 240;
	configuration 985054-LINECONFIG;
};

object overhead_line {
	phases BN;
	from node981771981774;
	name 981771;
	to node981778981771;
	length 350;
	configuration 985054-LINECONFIG;
};

object overhead_line {
	phases BN;
	from node981778981771;
	name 981778;
	to node981782981778;
	length 300;
	configuration 985054-LINECONFIG;
};

object overhead_line {
	phases BN;
	from node981782981778;
	name 981782;
	to node981770981782;
	length 270;
	configuration 985054-LINECONFIG;
};

object overhead_line {
	phases B;
	from node981770981782;
	name 981770;
	to node6920x1-Bx1981770;
	length 20;
	configuration 985054-LINECONFIG;
};

object underground_line {
	phases B;
	from node923614923612;
	name 923615;
	to node928725923615;
	length 310;
	configuration 929369-LINECONFIG;
};

object underground_line {
	phases B;
	from node928725923615;
	name 928725;
	to node928730928725;
	length 384;
	configuration 929369-LINECONFIG;
};

object underground_line {
	phases B;
	from node928730928725;
	name 928730;
	to node928731928730;
	length 742;
	configuration 929369-LINECONFIG;
};

object underground_line {
	phases B;
	from node928731928730;
	name 928731;
	to node928127928731;
	length 935;
	configuration 929369-LINECONFIG;
};

object underground_line {
	phases B;
	from node928127928731;
	name 928127;
	to nodeT7903928127;
	length 1096;
	configuration 929369-LINECONFIG;
};

object underground_line {
	phases B;
	from node928127928731;
	name 928733;
	to nodeT7871928733;
	length 32;
	configuration 929369-LINECONFIG;
};

object underground_line {
	phases B;
	from node928127928731;
	name 928735;
	to node837409928735;
	length 250;
	configuration 929369-LINECONFIG;
};

object underground_line {
	phases B;
	from node837409928735;
	name 837409;
	to node924936837409;
	length 812;
	configuration 841826-LINECONFIG;
};

object underground_line {
	phases B;
	from node924936837409;
	name 924936;
	to node965706924936;
	length 573;
	configuration 841826-LINECONFIG;
};

object underground_line {
	phases B;
	from node965706924936;
	name 965706;
	to node965707965706;
	length 501;
	configuration 929369-LINECONFIG;
};

object underground_line {
	phases B;
	from node965707965706;
	name 965707;
	to node837415965707;
	length 382;
	configuration 929369-LINECONFIG;
};

object underground_line {
	phases B;
	from node837415965707;
	name 837415;
	to node837416837415;
	length 318;
	configuration 929369-LINECONFIG;
};

object underground_line {
	phases B;
	from node837416837415;
	name 837416;
	to node837417837416;
	length 24;
	configuration 929369-LINECONFIG;
};

object underground_line {
	phases B;
	from node837417837416;
	name 837417;
	to node928193837417;
	length 338;
	configuration 929369-LINECONFIG;
};

object underground_line {
	phases B;
	from node928193837417;
	name 928193;
	to nodeT12193928193;
	length 118;
	configuration 929369-LINECONFIG;
};

object underground_line {
	phases B;
	from node924936837409;
	name 924937;
	to nodeT14008924937;
	length 250;
	configuration 929369-LINECONFIG;
};

object underground_line {
	phases B;
	from node837409928735;
	name 928736;
	to node928741928736;
	length 350;
	configuration 929369-LINECONFIG;
};

object underground_line {
	phases B;
	from node928741928736;
	name 928741;
	to node928742928741;
	length 770;
	configuration 929369-LINECONFIG;
};

object underground_line {
	phases B;
	from node928742928741;
	name 928742;
	to node928748928742;
	length 578;
	configuration 929369-LINECONFIG;