clock {
	timezone PST+8PDT;
	starttime '2000-01-01 00:00:00';
	stoptime '2000-01-01 00:00:00';
};

#set minimum_timestep=60;
#set profiler=1;
#set relax_naming_rules=1;
module generators;
module tape;
module residential {
	implicit_enduses NONE;
};

module powerflow {
	solver_method NR;
	NR_iteration_limit 50;
};

object node {
	phases ABCN;
	name BROMLEY;
	bustype SWING;
	longitude 0;
	nominal_voltage 7200.0;
	latitude 0;
};

object overhead_line {
	phases ACB;
	from BROMLEY;
	name 8370;
	longitude 0;
	to node83698370;
	length 25.0635;
	latitude 0;
	configuration 5564-LINECONFIG;
};

object overhead_line {
	phases ACB;
	from node83698370;
	name 8369;
	longitude 0;
	to node682668369;
	length 25.9559;
	latitude 0;
	configuration 5564-LINECONFIG;
};

object overhead_line {
	phases ACB;
	from node682668369;
	name 68266;
	longitude 0;
	to node6826768266;
	length 19.3343;
	latitude 0;
	configuration 5564-LINECONFIG;
};

object overhead_line {
	phases ACB;
	from node682668369;
	name 68264;
	longitude 0;
	to node6826568264;
	length 22.1567;
	latitude 0;
	configuration 5564-LINECONFIG;
};

object overhead_line {
	phases ACB;
	from node682668369;
	name 68262;
	longitude 0;
	to node6826368262;
	length 21.6901;
	latitude 0;
	configuration 5564-LINECONFIG;
};

object overhead_line {
	phases ACB;
	from node6826368262;
	name 68263;
	longitude 0;
	to nodeR139868263;
	length 25.5819;
	latitude 0;
	configuration 5564-LINECONFIG;
};

object fuse {
	phases ACB;
	from nodeR139868263;
	name R1398;
	current_limit 9999.0 A;
	longitude 0;
	to node8586R1398;
	latitude 0;
};

object overhead_line {
	phases ACB;
	from node8586R1398;
	name 8586;
	longitude 0;
	to node85808586;
	length 34.2101;
	latitude 0;
	configuration 5564-LINECONFIG;
};

object overhead_line {
	phases ACB;
	from node85808586;
	name 8580;
	longitude 0;
	to node82588580;
	length 108.402;
	latitude 0;
	configuration 8194-LINECONFIG;
};

object overhead_line {
	phases ACB;
	from node82588580;
	name 8258;
	to node85408258;
	longitude 0;
	length 106.998;
	latitude 0;
	configuration 8194-LINECONFIG;
};

object overhead_line {
	phases ACB;
	from node85408258;
	name 8540;
	longitude 0;
	to node84948540;
	length 131.126;
	latitude 0;
	configuration 8194-LINECONFIG;
};

object overhead_line {
	phases ACB;
	from node84948540;
	name 8494;
	longitude 0;
	to node81958494;
	length 131.563;
	latitude 0;
	configuration 8194-LINECONFIG;
};

object overhead_line {
	phases ACB;
	from node81958494;
	name 8195;
	longitude 0;
	to node81948195;
	length 106.214;
	latitude 0;
	configuration 8194-LINECONFIG;
};

object line_configuration {
	name 8194-LINECONFIG;
	spacing 5272-LINESPACING;
	conductor_B 8194_conductor_C;
	conductor_A 8194_conductor_C;
	conductor_C 8194_conductor_C;
};

object overhead_line_conductor {
	diameter 1.156;
	name 8194_conductor_C;
	geometric_mean_radius 0.048;
	resistance 0.203;
};

object overhead_line {
	phases ACB;
	from node81948195;
	name 8194;
	longitude 0;
	to node81858194;
	length 180.078;
	latitude 0;
	configuration 8194-LINECONFIG;
};

object overhead_line {
	phases ACB;
	from node81858194;
	name 8185;
	longitude 0;
	to node83378185;
	length 255.533;
	latitude 0;
	configuration 5564-LINECONFIG;
};

object overhead_line {
	phases ACB;
	from node83378185;
	name 8337;
	longitude 0;
	to node82308337;
	length 284.126;
	latitude 0;
	configuration 5564-LINECONFIG;
};

object overhead_line {
	phases ACB;
	from node82308337;
	name 8230;
	longitude 0;
	to node73548230;
	length 180.361;
	latitude 0;
	configuration 5564-LINECONFIG;
};

object overhead_line {
	phases ACB;
	from node73548230;
	name 7354;
	to node81087354;
	longitude 0;
	length 245.509;
	latitude 0;
	configuration 5564-LINECONFIG;
};

object overhead_line {
	phases ACB;
	from node81087354;
	name 8108;
	longitude 0;
	to node80688108;
	length 320.366;
	latitude 0;
	configuration 5564-LINECONFIG;
};

object overhead_line {
	phases ACB;
	from node80688108;
	name 8068;
	longitude 0;
	to node79418068;
	length 300.212;
	latitude 0;
	configuration 5564-LINECONFIG;
};

object overhead_line {
	phases ACB;
	from node79418068;
	name 7941;
	longitude 0;
	to node74767941;
	length 285.923;
	latitude 0;
	configuration 5564-LINECONFIG;
};

object overhead_line {
	phases ACB;
	from node74767941;
	name 7476;
	longitude 0;
	to node77527476;
	length 399.581;
	latitude 0;
	configuration 5564-LINECONFIG;
};

object overhead_line {
	phases ACB;
	from node77527476;
	name 7752;
	longitude 0;
	to node77337752;
	length 184.545;
	latitude 0;
	configuration 5564-LINECONFIG;
};

object overhead_line {
	phases ACB;
	from node77337752;
	name 7733;
	longitude 0;
	to node73097733;
	length 512.78;
	latitude 0;
	configuration 5564-LINECONFIG;
};

object overhead_line {
	phases ACB;
	from node73097733;
	name 7309;
	longitude 0;
	to node72137309;
	length 533.965;
	latitude 0;
	configuration 5564-LINECONFIG;
};

object overhead_line {
	phases ACB;
	from node72137309;
	name 7213;
	to node75267213;
	longitude 0;
	length 303.385;
	latitude 0;
	configuration 5564-LINECONFIG;
};

object overhead_line {
	phases ACB;
	from node75267213;
	name 7526;
	longitude 0;
	to node65167526;
	length 240.809;
	latitude 0;
	configuration 5564-LINECONFIG;
};

object overhead_line {
	phases ACB;
	from node65167526;
	name 6516;
	longitude 0;
	to nodeT121752020386516;
	length 257.081;
	latitude 0;
	configuration 5564-LINECONFIG;
};

object overhead_line {
	phases ACB;
	from nodeT121752020386516;
	name 7187;
	longitude 0;
	to node71477187;
	length 183.125;
	latitude 0;
	configuration 5564-LINECONFIG;
};

object overhead_line {
	phases ACB;
	from node71477187;
	name 7147;
	longitude 0;
	to nodeT121752000677147;
	length 168.042;
	latitude 0;
	configuration 5564-LINECONFIG;
};

object overhead_line {
	phases ACB;
	from nodeT121752000677147;
	name 6977;
	longitude 0;
	to node68466977;
	length 390.474;
	latitude 0;
	configuration 5564-LINECONFIG;
};

object overhead_line {
	phases ACB;
	from node68466977;
	name 6846;
	longitude 0;
	to node67136846;
	length 434.375;
	latitude 0;
	configuration 5564-LINECONFIG;
};

object overhead_line {
	phases ACB;
	from node67136846;
	name 6713;
	longitude 0;
	to node64756713;
	length 452.545;
	latitude 0;
	configuration 5564-LINECONFIG;
};

object overhead_line {
	phases ACB;
	from node64756713;
	name 6475;
	longitude 0;
	to node61476475;
	length 444.672;
	latitude 0;
	configuration 5564-LINECONFIG;
};

object overhead_line {
	phases ACB;
	from node61476475;
	name 6147;
	longitude 0;
	to nodeT121751901726147;
	length 319.893;
	latitude 0;
	configuration 5564-LINECONFIG;
};

object overhead_line {
	phases ACB;
	from nodeT121751901726147;
	name 6348;
	to nodeT121751882426348;
	longitude 0;
	length 494.97;
	latitude 0;
	configuration 5564-LINECONFIG;
};

object overhead_line {
	phases ACB;
	from nodeT121751882426348;
	name 6263;
	longitude 0;
	to node62626263;
	length 133.552;
	latitude 0;
	configuration 5564-LINECONFIG;
};

object overhead_line {
	phases ACB;
	from node62626263;
	name 6262;
	longitude 0;
	to node60296262;
	length 196.269;
	latitude 0;
	configuration 5564-LINECONFIG;
};

object overhead_line {
	phases ACB;
	from node60296262;
	name 6029;
	longitude 0;
	to node58226029;
	length 313.199;
	latitude 0;
	configuration 5564-LINECONFIG;
};

object overhead_line {
	phases ACB;
	from node58226029;
	name 5822;
	longitude 0;
	to node60915822;
	length 105.836;
	latitude 0;
	configuration 5564-LINECONFIG;
};

object overhead_line {
	phases ACB;
	from node60915822;
	name 6091;
	longitude 0;
	to node57876091;
	length 368.088;
	latitude 0;
	configuration 5564-LINECONFIG;
};

object overhead_line {
	phases ACB;
	from node57876091;
	name 5787;
	to node59755787;
	longitude 0;
	length 458.346;
	latitude 0;
	configuration 5564-LINECONFIG;
};

object overhead_line {
	phases ACB;
	from node59755787;
	name 5975;
	longitude 0;
	to node59745975;
	length 212.18;
	latitude 0;
	configuration 5564-LINECONFIG;
};

object overhead_line {
	phases C;
	from node59745975;
	name 5974;
	longitude 0;
	to nodeF89275974;
	length 25.0003;
	latitude 0;
	configuration 6488-LINECONFIG;
};

object fuse {
	phases C;
	from nodeF89275974;
	name F8927;
	current_limit 9999.0 A;
	longitude 0;
	to node5978F8927;
	latitude 0;
};

object overhead_line {
	phases C;
	from node5978F8927;
	name 5978;
	longitude 0;
	to node59795978;
	length 39.5511;
	latitude 0;
	configuration 6488-LINECONFIG;
};

object overhead_line {
	phases C;
	from node59795978;
	name 5979;
	longitude 0;
	to nodeT121751804955979;
	length 421.365;
	latitude 0;
	configuration 6488-LINECONFIG;
};

object overhead_line {
	phases C;
	from nodeT121751804955979;
	name 5781;
	to node53685781;
	longitude 0;
	length 226.652;
	latitude 0;
	configuration 6488-LINECONFIG;
};

object overhead_line {
	phases C;
	from node53685781;
	name 5368;
	longitude 0;
	to nodeT121751816855368;
	length 212.364;
	latitude 0;
	configuration 6488-LINECONFIG;
};

object overhead_line {
	phases ACB;
	from node59745975;
	name 5926;
	longitude 0;
	to node58815926;
	length 335.407;
	latitude 0;
	configuration 5564-LINECONFIG;
};

object overhead_line {
	phases ACB;
	from node58815926;
	name 5881;
	longitude 0;
	to nodeT121742372015881;
	length 275.923;
	latitude 0;
	configuration 5564-LINECONFIG;
};

object overhead_line {
	phases ACB;
	from nodeT121742372015881;
	name 5832;
	longitude 0;
	to node57555832;
	length 298.87;
	latitude 0;
	configuration 5564-LINECONFIG;
};

object overhead_line {
	phases ACB;
	from node57555832;
	name 5755;
	longitude 0;
	to node48895755;
	length 369.369;
	latitude 0;
	configuration 5564-LINECONFIG;
};

object overhead_line {
	phases ACB;
	from node48895755;
	name 4889;
	longitude 0;
	to nodeT121742321844889;
	length 191.945;
	latitude 0;
	configuration 5564-LINECONFIG;
};

object overhead_line {
	phases ACB;
	from nodeT121742321844889;
	name 5565;
	longitude 0;
	to nodeSW1082-Bx15565;
	length 18.1269;
	latitude 0;
	configuration 5564-LINECONFIG;
};

object switch {
	status CLOSED;
	phases ACB;
	from nodeSW1082-Bx15565;
	name SW1082-Bx1;
	longitude 0;
	to nodeSW1082-Ax1SW1082-Bx1;
	latitude 0;
};

object switch {
	status CLOSED;
	phases ACB;
	from nodeSW1082-Ax1SW1082-Bx1;
	name SW1082-Ax1;
	longitude 0;
	to node5564SW1082-Ax1;
	latitude 0;
};

object line_configuration {
	name 5564-LINECONFIG;
	spacing 5272-LINESPACING;
	conductor_A 5564_conductor_C;
	conductor_C 5564_conductor_C;
	conductor_B 5564_conductor_C;
};

object overhead_line_conductor {
	diameter 0.721;
	name 5564_conductor_C;
	geometric_mean_radius 0.0221;
	resistance 0.303;
};

object overhead_line {
	phases ACB;
	from node5564SW1082-Ax1;
	name 5564;
	longitude 0;
	to node55495564;
	length 218.97;
	latitude 0;
	configuration 5564-LINECONFIG;
};

object overhead_line {
	phases B;
	from node55495564;
	name 5549;
	longitude 0;
	to node675305549;
	length 82.4509;
	latitude 0;
	configuration 2918-LINECONFIG;
};

object overhead_line {
	phases B;
	from node675305549;
	name 67530;
	longitude 0;
	to nodeR100467530;
	length 11.6163;
	latitude 0;
	configuration 2918-LINECONFIG;
};

object fuse {
	phases B;
	from nodeR100467530;
	name R1004;
	current_limit 9999.0 A;
	longitude 0;
	to node67531R1004;
	latitude 0;
};

object overhead_line {
	phases B;
	from node67531R1004;
	name 67531;
	longitude 0;
	to node554667531;
	length 12.5072;
	latitude 0;
	configuration 2918-LINECONFIG;
};

object overhead_line {
	phases B;
	from node554667531;
	name 5546;
	longitude 0;
	to nodeSW1506-Ax15546;
	length 14.5006;
	latitude 0;
	configuration 2918-LINECONFIG;
};

object overhead_line {
	phases B;
	from node554667531;
	name 4632;
	to node46254632;
	longitude 0;
	length 147.394;
	latitude 0;
	configuration 2918-LINECONFIG;
};

object overhead_line {
	phases B;
	from node46254632;
	name 4625;
	longitude 0;
	to nodeT121742302304625;
	length 266.061;
	latitude 0;
	configuration 2808-LINECONFIG;
};

object overhead_line {
	phases B;
	from node46254632;
	name 4880;
	longitude 0;
	to nodeT121580489784880;
	length 397.075;
	latitude 0;
	configuration 2918-LINECONFIG;
};

object overhead_line {
	phases B;
	from nodeT121580489784880;
	name 5723;
	longitude 0;
	to node57045723;
	length 175.384;
	latitude 0;
	configuration 2918-LINECONFIG;
};

object overhead_line {
	phases B;
	from node57045723;
	name 5704;
	to node56825704;
	longitude 0;
	length 242.298;
	latitude 0;
	configuration 2918-LINECONFIG;
};

object overhead_line {
	phases B;
	from node56825704;
	name 5682;
	longitude 0;
	to node53205682;
	length 400.419;
	latitude 0;
	configuration 2918-LINECONFIG;
};

object overhead_line {
	phases B;
	from node53205682;
	name 5320;
	longitude 0;
	to node56295320;
	length 418.414;
	latitude 0;
	configuration 2918-LINECONFIG;
};

object overhead_line {
	phases B;
	from node56295320;
	name 5629;
	longitude 0;
	to node55955629;
	length 514.021;
	latitude 0;
	configuration 2918-LINECONFIG;
};

object overhead_line {
	phases B;
	from node55955629;
	name 5595;
	longitude 0;
	to node55255595;
	length 369.582;
	latitude 0;
	configuration 2918-LINECONFIG;
};

object overhead_line {
	phases B;
	from node55255595;
	name 5525;
	longitude 0;
	to node54915525;
	length 389.151;
	latitude 0;
	configuration 2918-LINECONFIG;
};

object overhead_line {
	phases B;
	from node54915525;
	name 5491;
	longitude 0;
	to node54545491;
	length 547.945;
	latitude 0;
	configuration 2918-LINECONFIG;
};

object overhead_line {
	phases B;
	from node54545491;
	name 5454;
	longitude 0;
	to node54555454;
	length 412.864;
	latitude 0;
	configuration 2918-LINECONFIG;
};

object overhead_line {
	phases B;
	from node54555454;
	name 5455;
	to node54585455;
	longitude 0;
	length 343.906;
	latitude 0;
	configuration 2918-LINECONFIG;
};

object overhead_line {
	phases B;
	from node54585455;
	name 5458;
	longitude 0;
	to node54605458;
	length 358.492;
	latitude 0;
	configuration 2918-LINECONFIG;
};

object overhead_line {
	phases B;
	from node54605458;
	name 5460;
	longitude 0;
	to node54625460;
	length 365.819;
	latitude 0;
	configuration 2918-LINECONFIG;
};

object overhead_line {
	phases B;
	from node54625460;
	name 5462;
	longitude 0;
	to node54655462;
	length 362.181;
	latitude 0;
	configuration 2918-LINECONFIG;
};

object overhead_line {
	phases B;
	from node54655462;
	name 5465;
	longitude 0;
	to node54685465;
	length 390.634;
	latitude 0;
	configuration 2918-LINECONFIG;
};

object overhead_line {
	phases B;
	from node54685465;
	name 5468;
	longitude 0;
	to node54855468;
	length 621.703;
	latitude 0;
	configuration 2918-LINECONFIG;
};

object overhead_line {
	phases B;
	from node54855468;
	name 5485;
	longitude 0;
	to node54955485;
	length 363.053;
	latitude 0;
	configuration 2918-LINECONFIG;
};

object overhead_line {
	phases B;
	from node54955485;
	name 5495;
	longitude 0;
	to node55005495;
	length 204.09;
	latitude 0;
	configuration 2918-LINECONFIG;
};

object overhead_line {
	phases B;
	from node55005495;
	name 5500;
	to node54665500;
	longitude 0;
	length 327.002;
	latitude 0;
	configuration 2918-LINECONFIG;
};

object overhead_line {
	phases B;
	from node54665500;
	name 5466;
	longitude 0;
	to node54315466;
	length 474.137;
	latitude 0;
	configuration 2918-LINECONFIG;
};

object overhead_line {
	phases B;
	from node54315466;
	name 5431;
	longitude 0;
	to node53815431;
	length 530.182;
	latitude 0;
	configuration 2918-LINECONFIG;
};

object overhead_line {
	phases B;
	from node53815431;
	name 5381;
	longitude 0;
	to node52545381;
	length 485.572;
	latitude 0;
	configuration 2918-LINECONFIG;
};

object overhead_line {
	phases B;
	from node52545381;
	name 5254;
	longitude 0;
	to node51805254;
	length 579.535;
	latitude 0;
	configuration 2918-LINECONFIG;
};

object overhead_line {
	phases B;
	from node51805254;
	name 5180;
	longitude 0;
	to node51235180;
	length 652.372;
	latitude 0;
	configuration 2918-LINECONFIG;
};

object overhead_line {
	phases B;
	from node51235180;
	name 5123;
	longitude 0;
	to node49825123;
	length 537.963;
	latitude 0;
	configuration 2918-LINECONFIG;
};

object overhead_line {
	phases B;
	from node49825123;
	name 4982;
	longitude 0;
	to node45944982;
	length 465.418;
	latitude 0;
	configuration 2918-LINECONFIG;
};

object overhead_line {
	phases B;
	from node45944982;
	name 4594;
	to node39774594;
	longitude 0;
	length 289.639;
	latitude 0;
	configuration 2918-LINECONFIG;
};

object overhead_line {
	phases B;
	from node39774594;
	name 3977;
	longitude 0;
	to node39473977;
	length 25.0001;
	latitude 0;
	configuration 2918-LINECONFIG;
};

object overhead_line {
	phases B;
	from node39473977;
	name 3947;
	longitude 0;
	to node50733947;
	length 160.371;
	latitude 0;
	configuration 2918-LINECONFIG;
};

object overhead_line {
	phases B;
	from node50733947;
	name 5073;
	longitude 0;
	to node50585073;
	length 577.916;
	latitude 0;
	configuration 2918-LINECONFIG;
};

object overhead_line {
	phases B;
	from node50585073;
	name 5058;
	longitude 0;
	to node50525058;
	length 185.862;
	latitude 0;
	configuration 2918-LINECONFIG;
};

object overhead_line {
	phases B;
	from node50525058;
	name 5052;
	longitude 0;
	to nodeT121741295785052;
	length 226.176;
	latitude 0;
	configuration 2808-LINECONFIG;
};

object overhead_line {
	phases B;
	from nodeT121741295785052;
	name 5029;
	to nodeF59935029;
	longitude 0;
	length 19.4364;
	latitude 0;
	configuration 2808-LINECONFIG;
};

object fuse {
	phases B;
	from nodeF59935029;
	name F5993;
	current_limit 9999.0 A;
	longitude 0;
	to node5028F5993;
	latitude 0;
};

object overhead_line {
	phases B;
	from node5028F5993;
	name 5028;
	longitude 0;
	to node48365028;
	length 315.68;
	latitude 0;
	configuration 2808-LINECONFIG;
};

object overhead_line {
	phases B;
	from node48365028;
	name 4836;
	longitude 0;
	to node48234836;
	length 352.252;
	latitude 0;
	configuration 2808-LINECONFIG;
};

object overhead_line {
	phases B;
	from node48234836;
	name 4823;
	longitude 0;
	to node47044823;
	length 325.745;
	latitude 0;
	configuration 2808-LINECONFIG;
};

object overhead_line {
	phases B;
	from node47044823;
	name 4704;
	longitude 0;
	to node45524704;
	length 204.042;
	latitude 0;
	configuration 2808-LINECONFIG;
};

object overhead_line {
	phases B;
	from node45524704;
	name 4552;
	longitude 0;
	to nodeT121741224514552;
	length 304.761;
	latitude 0;
	configuration 2808-LINECONFIG;
};

object overhead_line {
	phases B;
	from nodeT121741224514552;
	name 4645;
	longitude 0;
	to node48024645;
	length 285.432;
	latitude 0;
	configuration 2808-LINECONFIG;
};

object overhead_line {
	phases B;
	from node48024645;
	name 4802;
	longitude 0;
	to nodeT121741203304802;
	length 203.354;
	latitude 0;
	configuration 2808-LINECONFIG;
};

object overhead_line {
	phases B;
	from node48365028;
	name 5016;
	longitude 0;
	to nodeT121741274785016;
	length 114;
	latitude 0;
	configuration 2808-LINECONFIG;
};

object overhead_line {
	phases B;
	from node50525058;
	name 5025;
	to node44105025;
	longitude 0;
	length 337.077;
	latitude 0;
	configuration 2918-LINECONFIG;
};

object overhead_line {
	phases B;
	from node44105025;
	name 4410;
	longitude 0;
	to node47004410;
	length 517.9;
	latitude 0;
	configuration 2918-LINECONFIG;
};

object overhead_line {
	phases B;
	from node47004410;
	name 4700;
	longitude 0;
	to node47854700;
	length 386.627;
	latitude 0;
	configuration 2918-LINECONFIG;
};

object overhead_line {
	phases B;
	from node47854700;
	name 4785;
	longitude 0;
	to node39674785;
	length 843.291;
	latitude 0;
	configuration 2918-LINECONFIG;
};

object overhead_line {
	phases B;
	from node39674785;
	name 3967;
	longitude 0;
	to node40123967;
	length 806.924;
	latitude 0;
	configuration 2918-LINECONFIG;
};

object overhead_line {
	phases B;
	from node40123967;
	name 4012;
	longitude 0;
	to node45044012;
	length 696.314;
	latitude 0;
	configuration 2918-LINECONFIG;
};

object overhead_line {
	phases B;
	from node45044012;
	name 4504;
	longitude 0;
	to node44814504;
	length 290.228;
	latitude 0;
	configuration 2918-LINECONFIG;
};

object overhead_line {
	phases B;
	from node44814504;
	name 4481;
	longitude 0;
	to node44824481;
	length 361.934;
	latitude 0;
	configuration 2918-LINECONFIG;
};

object overhead_line {
	phases B;
	from node44824481;
	name 4482;
	to node44864482;
	longitude 0;
	length 506.089;
	latitude 0;
	configuration 2808-LINECONFIG;
};

object overhead_line {
	phases B;
	from node44864482;
	name 4486;
	longitude 0;
	to node44914486;
	length 447.306;
	latitude 0;
	configuration 2808-LINECONFIG;
};

object overhead_line {
	phases B;
	from node44914486;
	name 4491;
	longitude 0;
	to node44944491;
	length 162.822;
	latitude 0;
	configuration 2808-LINECONFIG;
};

object overhead_line {
	phases B;
	from node44944491;
	name 4494;
	longitude 0;
	to node45074494;
	length 171.391;
	latitude 0;
	configuration 2808-LINECONFIG;
};

object overhead_line {
	phases B;
	from node45074494;
	name 4507;
	longitude 0;
	to node45064507;
	length 150.942;
	latitude 0;
	configuration 2808-LINECONFIG;
};

object overhead_line {
	phases B;
	from node45064507;
	name 4506;
	longitude 0;
	to node45054506;
	length 70.6861;
	latitude 0;
	configuration 2808-LINECONFIG;
};

object overhead_line {
	phases B;
	from node45054506;
	name 4505;
	longitude 0;
	to node45194505;
	length 225.899;
	latitude 0;
	configuration 2808-LINECONFIG;
};

object overhead_line {
	phases B;
	from node45194505;
	name 4519;
	longitude 0;
	to node45204519;
	length 298.188;
	latitude 0;
	configuration 2808-LINECONFIG;
};

object overhead_line {
	phases B;
	from node45204519;
	name 4520;
	to node45174520;
	longitude 0;
	length 214.276;
	latitude 0;
	configuration 2808-LINECONFIG;
};

object overhead_line {
	phases B;
	from node45174520;
	name 4517;
	longitude 0;
	to node45164517;
	length 186.14;
	latitude 0;
	configuration 2808-LINECONFIG;
};

object overhead_line {
	phases B;
	from node45164517;
	name 4516;
	longitude 0;
	to node45184516;
	length 190.01;
	latitude 0;
	configuration 2808-LINECONFIG;
};

object overhead_line {
	phases B;
	from node45184516;
	name 4518;
	longitude 0;
	to nodeT121731721204518;
	length 195.969;
	latitude 0;
	configuration 2808-LINECONFIG;
};

object overhead_line {
	phases B;
	from node44824481;
	name 4451;
	longitude 0;
	to node39464451;
	length 344.769;
	latitude 0;
	configuration 2918-LINECONFIG;
};

object overhead_line {
	phases B;
	from node39464451;
	name 3946;
	longitude 0;
	to node42533946;
	length 428.354;
	latitude 0;
	configuration 2918-LINECONFIG;
};

object overhead_line {
	phases B;
	from node42533946;
	name 4253;
	to nodeT121731035944253;
	longitude 0;
	length 441.465;
	latitude 0;
	configuration 2918-LINECONFIG;
};

object overhead_line {
	phases B;
	from nodeT121731035944253;
	name 4224;
	longitude 0;
	to nodeT121731026584224;
	length 391.629;
	latitude 0;
	configuration 2918-LINECONFIG;
};

object overhead_line {
	phases B;
	from nodeT121731026584224;
	name 3609;
	longitude 0;
	to nodeF89333609;
	length 19.0559;
	latitude 0;
	configuration 2808-LINECONFIG;
};

object fuse {
	phases B;
	from nodeF89333609;
	name F8933;
	current_limit 9999.0 A;
	longitude 0;
	to node3610F8933;
	latitude 0;
};

object overhead_line {
	phases B;
	from node3610F8933;
	name 3610;
	to node43743610;
	longitude 0;
	length 281.883;
	latitude 0;
	configuration 2808-LINECONFIG;
};

object overhead_line {
	phases B;
	from node43743610;
	name 4374;
	longitude 0;
	to node43524374;
	length 356.059;
	latitude 0;
	configuration 2808-LINECONFIG;
};

object overhead_line {
	phases B;
	from node43524374;
	name 4352;
	longitude 0;
	to node42834352;
	length 309.921;
	latitude 0;
	configuration 2808-LINECONFIG;
};

object overhead_line {
	phases B;
	from node42834352;
	name 4283;
	longitude 0;
	to node35934283;
	length 441.06;
	latitude 0;
	configuration 2808-LINECONFIG;
};

object overhead_line {
	phases B;
	from node35934283;
	name 3593;
	longitude 0;
	to node41943593;
	length 449.988;
	latitude 0;
	configuration 2808-LINECONFIG;
};

object overhead_line {
	phases B;
	from node41943593;
	name 4194;
	longitude 0;
	to node41684194;
	length 362.992;
	latitude 0;
	configuration 2808-LINECONFIG;
};

object overhead_line {
	phases B;
	from node41684194;
	name 4168;
	longitude 0;
	to nodeT121730912384168;
	length 329.972;
	latitude 0;
	configuration 2808-LINECONFIG;
};

object overhead_line {
	phases B;
	from nodeT121731026584224;
	name 3606;
	longitude 0;
	to node43733606;
	length 359.866;
	latitude 0;
	configuration 2918-LINECONFIG;
};

object overhead_line {
	phases B;
	from node43733606;
	name 4373;
	longitude 0;
	to node41144373;
	length 400.46;
	latitude 0;
	configuration 2918-LINECONFIG;
};

object overhead_line {
	phases B;
	from node41144373;
	name 4114;
	longitude 0;
	to node43444114;
	length 365.898;
	latitude 0;
	configuration 2918-LINECONFIG;
};

object overhead_line {
	phases B;
	from node43444114;
	name 4344;
	longitude 0;
	to node43324344;
	length 307.351;
	latitude 0;
	configuration 2918-LINECONFIG;
};

object overhead_line {
	phases B;
	from node43324344;
	name 4332;
	longitude 0;
	to nodeT121730373864332;
	length 250.984;
	latitude 0;
	configuration 2918-LINECONFIG;
};

object overhead_line {
	phases B;
	from nodeT121730373864332;
	name 4304;
	longitude 0;
	to node42934304;
	length 333.421;
	latitude 0;
	configuration 2918-LINECONFIG;
};

object overhead_line {
	phases B;
	from node42934304;
	name 4293;
	to node40054293;
	longitude 0;
	length 297.931;
	latitude 0;
	configuration 2918-LINECONFIG;
};

object overhead_line {
	phases B;
	from node40054293;
	name 4005;
	longitude 0;
	to node39934005;
	length 380.607;
	latitude 0;
	configuration 2918-LINECONFIG;
};

object overhead_line {
	phases B;
	from node39934005;
	name 3993;
	longitude 0;
	to nodeT121730359703993;
	length 158.299;
	latitude 0;
	configuration 2918-LINECONFIG;
};

object overhead_line {
	phases B;
	from nodeT121730359703993;
	name 3983;
	longitude 0;
	to node574643983;
	length 296.054;
	latitude 0;
	configuration 2918-LINECONFIG;
};

object underground_line {
	phases B;
	from node574643983;
	name 57464;
	longitude 0;
	to nodeF837357464;
	length 19.116;
	latitude 0;
	configuration 72487-LINECONFIG;
};

object fuse {
	phases B;
	from nodeF837357464;
	name F8373;
	current_limit 9999.0 A;
	longitude 0;
	to node57465F8373;
	latitude 0;
};

object underground_line {
	phases B;
	from node57465F8373;
	name 57465;
	to node5746357465;
	longitude 0;
	length 780.934;
	latitude 0;
	configuration 72487-LINECONFIG;
};

object underground_line {
	phases B;
	from node5746357465;
	name 57463;
	longitude 0;
	to node5745757463;
	length 700;
	latitude 0;
	configuration 72487-LINECONFIG;
};

object underground_line {
	phases B;
	from node5745757463;
	name 57457;
	longitude 0;
	to nodeT1217302852357457;
	length 500;
	latitude 0;
	configuration 72487-LINECONFIG;
};

object overhead_line {
	phases B;
	from node574643983;
	name 4266;
	longitude 0;
	to node34524266;
	length 421.28;
	latitude 0;
	configuration 2918-LINECONFIG;
};

object overhead_line {
	phases B;
	from node34524266;
	name 3452;
	longitude 0;
	to node42033452;
	length 402.443;
	latitude 0;
	configuration 2918-LINECONFIG;
};

object overhead_line {
	phases B;
	from node42033452;
	name 4203;
	longitude 0;
	to node41784203;
	length 391.543;
	latitude 0;
	configuration 2918-LINECONFIG;
};

object overhead_line {
	phases B;
	from node41784203;
	name 4178;
	to node41004178;
	longitude 0;
	length 548.177;
	latitude 0;
	configuration 2918-LINECONFIG;
};

object overhead_line {
	phases B;
	from node41004178;
	name 4100;
	longitude 0;
	to node40424100;
	length 448.409;
	latitude 0;
	configuration 2918-LINECONFIG;
};

object overhead_line {
	phases B;
	from node40424100;
	name 4042;
	longitude 0;
	to node38694042;
	length 558.753;
	latitude 0;
	configuration 2918-LINECONFIG;
};

object overhead_line {
	phases B;
	from node38694042;
	name 3869;
	longitude 0;
	to node38363869;
	length 474.718;
	latitude 0;
	configuration 2918-LINECONFIG;
};

object overhead_line {
	phases B;
	from node38363869;
	name 3836;
	longitude 0;
	to node38073836;
	length 301.988;
	latitude 0;
	configuration 2918-LINECONFIG;
};

object overhead_line {
	phases B;
	from node38073836;
	name 3807;
	longitude 0;
	to node37733807;
	length 347.949;
	latitude 0;
	configuration 2918-LINECONFIG;
};

object overhead_line {
	phases B;
	from node37733807;
	name 3773;
	longitude 0;
	to node37293773;
	length 450.812;
	latitude 0;
	configuration 2918-LINECONFIG;
};

object overhead_line {
	phases B;
	from node37293773;
	name 3729;
	longitude 0;
	to node34903729;
	length 347.699;
	latitude 0;
	configuration 2918-LINECONFIG;
};

object overhead_line {
	phases B;
	from node34903729;
	name 3490;
	to node33213490;
	longitude 0;
	length 452.191;
	latitude 0;
	configuration 2918-LINECONFIG;
};

object overhead_line {
	phases B;
	from node33213490;
	name 3321;
	longitude 0;
	to node35533321;
	length 467.676;
	latitude 0;
	configuration 2918-LINECONFIG;
};

object overhead_line {
	phases B;
	from node35533321;
	name 3553;
	longitude 0;
	to node32863553;
	length 307.472;
	latitude 0;
	configuration 2918-LINECONFIG;
};

object overhead_line {
	phases B;
	from node32863553;
	name 3286;
	longitude 0;
	to node36813286;
	length 440.778;
	latitude 0;
	configuration 2918-LINECONFIG;
};

object overhead_line {
	phases B;
	from node36813286;
	name 3681;
	longitude 0;
	to node30703681;
	length 468.134;
	latitude 0;
	configuration 2918-LINECONFIG;
};

object overhead_line {
	phases B;
	from node30703681;
	name 3070;
	longitude 0;
	to node31663070;
	length 426.738;
	latitude 0;
	configuration 2918-LINECONFIG;
};

object overhead_line {
	phases B;
	from node31663070;
	name 3166;
	longitude 0;
	to node28343166;
	length 359.134;
	latitude 0;
	configuration 2918-LINECONFIG;
};

object overhead_line {
	phases B;
	from node28343166;
	name 2834;
	longitude 0;
	to node33442834;
	length 356.982;
	latitude 0;
	configuration 2918-LINECONFIG;
};

object overhead_line {
	phases B;
	from node33442834;
	name 3344;
	to node32113344;
	longitude 0;
	length 621.672;
	latitude 0;
	configuration 2918-LINECONFIG;
};
