clock {
	timezone PST+8PDT;
	starttime '2000-01-01 00:00:00';
	stoptime '2000-01-01 00:00:00';
};

#set minimum_timestep=60;
#set profiler=1;
#set relax_naming_rules=1;
module generators;
module tape;
module residential {
	implicit_enduses NONE;
};

module powerflow {
	solver_method NR;
	NR_iteration_limit 50;
};

object overhead_line_conductor {
	resistance 0.303039;
	name UNKNOWN;
	geometric_mean_radius 0.016680;
};

object line_spacing {
	distance_AN 14.631957;
	name UNKNOWN;
	distance_CN 11.004272;
	distance_BC 8.116350;
	distance_AB 8.116350;
	distance_BN 12.174524;
	distance_AC 15.748031;
};

object line_configuration {
	name olc49;
	spacing UNKNOWN;
	conductor_N O1_0_ACSR;
	conductor_A O1_0_ACSR;
	conductor_C O795_AAC;
	conductor_B O4_ACSR;
};

object line_configuration {
	name olc48;
	spacing UNKNOWN;
	conductor_N O1_0_ACSR;
	conductor_A O1_0_ACSR;
	conductor_C O4_ACSR;
	conductor_B O4_ACSR;
};

object line_configuration {
	name olc41;
	spacing UNKNOWN;
	conductor_N O4_ACSR;
	conductor_A O336_AAC;
	conductor_C O336_AAC;
	conductor_B O4_ACSR;
};

object line_configuration {
	name olc40;
	spacing UNKNOWN;
	conductor_N O4_ACSR;
	conductor_A O4_ACSR;
	conductor_C O336_AAC;
	conductor_B O1_0_ACSR;
};

object line_configuration {
	name olc43;
	spacing UNKNOWN;
	conductor_N O4_ACSR;
	conductor_A O4_ACSR;
	conductor_C O4_ACSR;
	conductor_B O336_AAC;
};

object line_configuration {
	name olc42;
	spacing UNKNOWN;
	conductor_N O4_ACSR;
	conductor_A O4_ACSR;
	conductor_C O336_AAC;
	conductor_B O4_ACSR;
};

object line_configuration {
	name olc45;
	spacing UNKNOWN;
	conductor_N O4_ACSR;
	conductor_A O4_ACSR;
	conductor_C O4_ACSR;
	conductor_B O1_0_ACSR;
};

object line_configuration {
	name olc44;
	spacing UNKNOWN;
	conductor_N O1_0_ACSR;
	conductor_A O4_ACSR;
	conductor_C O336_AAC;
	conductor_B O1_0_ACSR;
};

object line_configuration {
	name olc47;
	spacing UNKNOWN;
	conductor_N O4_ACSR;
	conductor_A O1_0_ACSR;
	conductor_C O1_0_ACSR;
	conductor_B O4_ACSR;
};

object line_configuration {
	name olc46;
	spacing UNKNOWN;
	conductor_N O1_0_ACSR;
	conductor_A O4_ACSR;
	conductor_C O4_ACSR;
	conductor_B O1_0_ACSR;
};

object line_configuration {
	name olc58;
	spacing UNKNOWN;
	conductor_N O4_ACSR;
	conductor_A O4_ACSR;
	conductor_C O1_0_ACSR;
	conductor_B O795_AAC;
};

object line_configuration {
	name olc59;
	spacing UNKNOWN;
	conductor_N O336_AAC;
	conductor_A O336_AAC;
	conductor_C O4_ACSR;
	conductor_B O795_AAC;
};

object line_configuration {
	name olc52;
	spacing UNKNOWN;
	conductor_N O1_0_ACSR;
	conductor_A O1_0_ACSR;
	conductor_C O795_AAC;
	conductor_B O1_0_ACSR;
};

object line_configuration {
	name olc53;
	spacing UNKNOWN;
	conductor_N UNKNOWN;
	conductor_A O1_0_ACSR;
	conductor_C O4_ACSR;
	conductor_B O1_0_ACSR;
};

object line_configuration {
	name olc50;
	spacing UNKNOWN;
	conductor_N UNKNOWN;
	conductor_A O795_AAC;
	conductor_C O4_ACSR;
	conductor_B O4_ACSR;
};

object line_configuration {
	name olc51;
	spacing UNKNOWN;
	conductor_N O4_ACSR;
	conductor_A O336_AAC;
	conductor_C O795_AAC;
	conductor_B O4_ACSR;
};

object line_configuration {
	name olc56;
	spacing UNKNOWN;
	conductor_N UNKNOWN;
	conductor_A O1_0_ACSR;
	conductor_C O4_ACSR;
	conductor_B O795_AAC;
};

object line_configuration {
	name olc57;
	spacing UNKNOWN;
	conductor_N O1_0_ACSR;
	conductor_A O4_ACSR;
	conductor_C O1_0_ACSR;
	conductor_B O795_AAC;
};

object line_configuration {
	name olc54;
	spacing UNKNOWN;
	conductor_N O4_ACSR;
	conductor_A O795_AAC;
	conductor_C O4_ACSR;
	conductor_B O1_0_ACSR;
};

object line_configuration {
	name olc55;
	spacing UNKNOWN;
	conductor_N O1_0_ACSR;
	conductor_A O4_ACSR;
	conductor_C O1_0_ACSR;
	conductor_B O1_0_ACSR;
};

object line_configuration {
	name olc67;
	spacing UNKNOWN;
	conductor_N O1_0_ACSR;
	conductor_A O4_ACSR;
	conductor_C O1_0_ACSR;
	conductor_B O4_ACSR;
};

object line_configuration {
	name olc66;
	spacing UNKNOWN;
	conductor_N O4_ACSR;
	conductor_A O1_0_ACSR;
	conductor_C O4_ACSR;
	conductor_B O336_AAC;
};

object line_configuration {
	name olc65;
	spacing UNKNOWN;
	conductor_N O1_0_ACSR;
	conductor_A O1_0_ACSR;
	conductor_C O1_0_ACSR;
	conductor_B O336_AAC;
};

object line_configuration {
	name olc64;
	spacing UNKNOWN;
	conductor_N O336_AAC;
	conductor_A O1_0_ACSR;
	conductor_C O1_0_ACSR;
	conductor_B O336_AAC;
};

object line_configuration {
	name olc63;
	spacing UNKNOWN;
	conductor_N O4_ACSR;
	conductor_A O336_AAC;
	conductor_C O4_ACSR;
	conductor_B O1_0_ACSR;
};

object line_configuration {
	name olc62;
	spacing UNKNOWN;
	conductor_N O336_AAC;
	conductor_A O336_AAC;
	conductor_C O4_ACSR;
	conductor_B O1_0_ACSR;
};

object line_configuration {
	name olc61;
	spacing UNKNOWN;
	conductor_N O336_AAC;
	conductor_A O336_AAC;
	conductor_C O4_ACSR;
	conductor_B O336_AAC;
};

object line_configuration {
	name olc60;
	spacing UNKNOWN;
	conductor_N O336_AAC;
	conductor_A O795_AAC;
	conductor_C O795_AAC;
	conductor_B O336_AAC;
};

object line_configuration {
	name olc69;
	spacing UNKNOWN;
	conductor_N O1_0_ACSR;
	conductor_A O336_AAC;
	conductor_C O1_0_ACSR;
	conductor_B O336_AAC;
};

object line_configuration {
	name olc68;
	spacing UNKNOWN;
	conductor_N O336_AAC;
	conductor_A O4_ACSR;
	conductor_C O795_AAC;
	conductor_B O336_AAC;
};

object line_configuration {
	name olc70;
	spacing UNKNOWN;
	conductor_N O4_ACSR;
	conductor_A O4_ACSR;
	conductor_C O1_0_ACSR;
	conductor_B O336_AAC;
};

object line_configuration {
	name olc71;
	spacing UNKNOWN;
	conductor_N O336_AAC;
	conductor_A O795_AAC;
	conductor_C O336_AAC;
	conductor_B O4_ACSR;
};

object line_configuration {
	name olc72;
	spacing UNKNOWN;
	conductor_N O336_AAC;
	conductor_A O4_ACSR;
	conductor_C O336_AAC;
	conductor_B O1_0_ACSR;
};

object line_configuration {
	name olc73;
	spacing UNKNOWN;
	conductor_N UNKNOWN;
	conductor_A O795_AAC;
	conductor_C O795_AAC;
	conductor_B O795_AAC;
};

object line_configuration {
	name olc74;
	spacing UNKNOWN;
	conductor_N UNKNOWN;
	conductor_A O336_AAC;
	conductor_C O4_ACSR;
	conductor_B O795_AAC;
};

object line_configuration {
	name olc75;
	spacing UNKNOWN;
	conductor_N O336_ACSR;
	conductor_A O795_ACSR;
	conductor_C O795_ACSR;
	conductor_B O795_ACSR;
};

object line_configuration {
	name olc76;
	spacing UNKNOWN;
	conductor_N O1_0_ACSR;
	conductor_A O795_ACSR;
	conductor_C O795_ACSR;
	conductor_B O1_0_ACSR;
};

object line_configuration {
	name olc77;
	spacing UNKNOWN;
	conductor_N O4_ACSR;
	conductor_A O795_ACSR;
	conductor_C O4_ACSR;
	conductor_B O1_0_ACSR;
};

object line_configuration {
	name olc78;
	spacing UNKNOWN;
	conductor_N O1_0_ACSR;
	conductor_A O1_0_ACSR;
	conductor_C O4_ACSR;
	conductor_B O795_AAC;
};

object line_configuration {
	name olc106;
	spacing UNKNOWN;
	conductor_N O795_AAC;
	conductor_A O795_AAC;
	conductor_C O795_AAC;
	conductor_B O795_AAC;
};

object line_configuration {
	name olc105;
	spacing UNKNOWN;
	conductor_N O336_AAC;
	conductor_A O795_AAC;
	conductor_C O336_AAC;
	conductor_B O336_AAC;
};

object line_configuration {
	name olc104;
	spacing UNKNOWN;
	conductor_N O1_0_ACSR;
	conductor_A O1_0_ACSR;
	conductor_C O336_AAC;
	conductor_B O1_0_ACSR;
};

object line_configuration {
	name olc103;
	spacing UNKNOWN;
	conductor_N O336_AAC;
	conductor_A O4_ACSR;
	conductor_C O336_AAC;
	conductor_B O336_AAC;
};

object line_configuration {
	name olc102;
	spacing UNKNOWN;
	conductor_N O336_AAC;
	conductor_A O4_ACSR;
	conductor_C O1_0_ACSR;
	conductor_B O336_AAC;
};

object line_configuration {
	name olc101;
	spacing UNKNOWN;
	conductor_N O336_AAC;
	conductor_A O336_AAC;
	conductor_C O1_0_ACSR;
	conductor_B O4_ACSR;
};

object line_configuration {
	name olc100;
	spacing UNKNOWN;
	conductor_N O1_0_ACSR;
	conductor_A O795_AAC;
	conductor_C O1_0_ACSR;
	conductor_B O336_AAC;
};

object line_configuration {
	name olc107;
	spacing UNKNOWN;
	conductor_N O336_AAC;
	conductor_A O1_0_ACSR;
	conductor_C O795_AAC;
	conductor_B O336_AAC;
};

object line_configuration {
	name olc89;
	spacing UNKNOWN;
	conductor_N O4_ACSR;
	conductor_A O1_0_ACSR;
	conductor_C O4_ACSR;
	conductor_B O795_AAC;
};

object line_configuration {
	name olc88;
	spacing UNKNOWN;
	conductor_N O336_AAC;
	conductor_A O336_AAC;
	conductor_C O1_0_ACSR;
	conductor_B O336_AAC;
};

object line_configuration {
	name olc79;
	spacing UNKNOWN;
	conductor_N O336_AAC;
	conductor_A O1_0_ACSR;
	conductor_C O336_AAC;
	conductor_B O795_AAC;
};

object line_configuration {
	name olc85;
	spacing UNKNOWN;
	conductor_N O4_ACSR;
	conductor_A O4_ACSR;
	conductor_C O795_AAC;
	conductor_B O336_AAC;
};

object line_configuration {
	name olc84;
	spacing UNKNOWN;
	conductor_N O336_AAC;
	conductor_A O336_AAC;
	conductor_C O1_0_ACSR;
	conductor_B O1_0_ACSR;
};

object line_configuration {
	name olc87;
	spacing UNKNOWN;
	conductor_N O1_0_ACSR;
	conductor_A O4_ACSR;
	conductor_C O1_0_ACSR;
	conductor_B O336_AAC;
};

object line_configuration {
	name olc86;
	spacing UNKNOWN;
	conductor_N O336_AAC;
	conductor_A O4_ACSR;
	conductor_C O336_AAC;
	conductor_B O4_ACSR;
};

object line_configuration {
	name olc81;
	spacing UNKNOWN;
	conductor_N O336_AAC;
	conductor_A O336_AAC;
	conductor_C O336_AAC;
	conductor_B O4_ACSR;
};

object line_configuration {
	name olc80;
	spacing UNKNOWN;
	conductor_N O4_0_ACSR;
	conductor_A O4_0_ACSR;
	conductor_C O336_AAC;
	conductor_B O4_ACSR;
};

object line_configuration {
	name olc83;
	spacing UNKNOWN;
	conductor_N O4_ACSR;
	conductor_A O336_AAC;
	conductor_C O1_0_ACSR;
	conductor_B O4_ACSR;
};

object line_configuration {
	name olc82;
	spacing UNKNOWN;
	conductor_N O1_0_ACSR;
	conductor_A O795_AAC;
	conductor_C O4_ACSR;
	conductor_B O1_0_ACSR;
};

object line_configuration {
	name olc98;
	spacing UNKNOWN;
	conductor_N O1_0_ACSR;
	conductor_A O336_AAC;
	conductor_C O795_AAC;
	conductor_B O1_0_ACSR;
};

object line_configuration {
	name olc99;
	spacing UNKNOWN;
	conductor_N O1_0_ACSR;
	conductor_A O1_0_ACSR;
	conductor_C O1_0_ACSR;
	conductor_B O795_AAC;
};

object line_configuration {
	name olc96;
	spacing UNKNOWN;
	conductor_N O336_AAC;
	conductor_A O336_AAC;
	conductor_C O336_AAC;
	conductor_B O795_AAC;
};

object line_configuration {
	name olc97;
	spacing UNKNOWN;
	conductor_N UNKNOWN;
	conductor_A O4_ACSR;
	conductor_C O4_ACSR;
	conductor_B O4_ACSR;
};

object line_configuration {
	name olc94;
	spacing UNKNOWN;
	conductor_N O4_0_ACSR;
	conductor_A O4_0_ACSR;
	conductor_C O336_AAC;
	conductor_B O336_AAC;
};

object line_configuration {
	name olc95;
	spacing UNKNOWN;
	conductor_N UNKNOWN;
	conductor_A O795_AAC;
	conductor_C O4_ACSR;
	conductor_B O795_AAC;
};

object line_configuration {
	name olc92;
	spacing UNKNOWN;
	conductor_N O1_0_ACSR;
	conductor_A O1_0_ACSR;
	conductor_C O336_AAC;
	conductor_B O4_ACSR;
};

object line_configuration {
	name olc93;
	spacing UNKNOWN;
	conductor_N O336_AAC;
	conductor_A O1_0_ACSR;
	conductor_C O336_AAC;
	conductor_B O1_0_ACSR;
};

object line_configuration {
	name olc90;
	spacing UNKNOWN;
	conductor_N O336_AAC;
	conductor_A O795_AAC;
	conductor_C O4_ACSR;
	conductor_B O336_AAC;
};

object line_configuration {
	name olc91;
	spacing UNKNOWN;
	conductor_N O4_ACSR;
	conductor_A O795_AAC;
	conductor_C O4_ACSR;
	conductor_B O336_AAC;
};

object line_configuration {
	name olc16;
	spacing UNKNOWN;
	conductor_N O4_ACSR;
	conductor_A O4_ACSR;
	conductor_C O795_AAC;
	conductor_B O795_AAC;
};

object line_configuration {
	name olc17;
	spacing UNKNOWN;
	conductor_N O336_AAC;
	conductor_A O4_ACSR;
	conductor_C O336_AAC;
	conductor_B O795_AAC;
};

object line_configuration {
	name olc14;
	spacing UNKNOWN;
	conductor_N O1_0_ACSR;
	conductor_A O1_0_ACSR;
	conductor_C O4_ACSR;
	conductor_B O1_0_ACSR;
};

object line_configuration {
	name olc15;
	spacing UNKNOWN;
	conductor_N O336_AAC;
	conductor_A O795_AAC;
	conductor_C O336_AAC;
	conductor_B O795_AAC;
};

object line_configuration {
	name olc12;
	spacing UNKNOWN;
	conductor_N O1_0_ACSR;
	conductor_A O1_0_ACSR;
	conductor_C O1_0_ACSR;
	conductor_B O1_0_ACSR;
};

object line_configuration {
	name olc13;
	spacing UNKNOWN;
	conductor_N O4_ACSR;
	conductor_A O1_0_ACSR;
	conductor_C O4_ACSR;
	conductor_B O1_0_ACSR;
};

object line_configuration {
	name olc10;
	spacing UNKNOWN;
	conductor_N O1_0_ACSR;
	conductor_A O336_AAC;
	conductor_C O1_0_ACSR;
	conductor_B O1_0_ACSR;
};

object line_configuration {
	name olc11;
	spacing UNKNOWN;
	conductor_N O4_ACSR;
	conductor_A O4_ACSR;
	conductor_C O1_0_ACSR;
	conductor_B O1_0_ACSR;
};

object line_configuration {
	name olc18;
	spacing UNKNOWN;
	conductor_N O4_ACSR;
	conductor_A O4_ACSR;
	conductor_C O4_ACSR;
	conductor_B O795_AAC;
};

object line_configuration {
	name olc19;
	spacing UNKNOWN;
	conductor_N O4_ACSR;
	conductor_A O4_ACSR;
	conductor_C O4_ACSR;
	conductor_B O4_ACSR;
};

object line_configuration {
	name olc23;
	spacing UNKNOWN;
	conductor_N O4_ACSR;
	conductor_A O1_0_ACSR;
	conductor_C O4_ACSR;
	conductor_B O4_ACSR;
};

object line_configuration {
	name olc22;
	spacing UNKNOWN;
	conductor_N O4_ACSR;
	conductor_A O1_0_ACSR;
	conductor_C O336_AAC;
	conductor_B O4_ACSR;
};

object line_configuration {
	name olc21;
	spacing UNKNOWN;
	conductor_N O1_0_ACSR;
	conductor_A O1_0_ACSR;
	conductor_C O336_AAC;
	conductor_B O795_AAC;
};

object line_configuration {
	name olc20;
	spacing UNKNOWN;
	conductor_N O1_0_ACSR;
	conductor_A O336_AAC;
	conductor_C O4_ACSR;
	conductor_B O1_0_ACSR;
};

object line_configuration {
	name olc27;
	spacing UNKNOWN;
	conductor_N O1_0_ACSR;
	conductor_A O795_AAC;
	conductor_C O1_0_ACSR;
	conductor_B O795_AAC;
};

object line_configuration {
	name olc26;
	spacing UNKNOWN;
	conductor_N O336_AAC;
	conductor_A O336_AAC;
	conductor_C O795_AAC;
	conductor_B O4_ACSR;
};

object line_configuration {
	name olc25;
	spacing UNKNOWN;
	conductor_N O4_ACSR;
	conductor_A O795_AAC;
	conductor_C O795_AAC;
	conductor_B O4_ACSR;
};

object line_configuration {
	name olc24;
	spacing UNKNOWN;
	conductor_N O1_0_ACSR;
	conductor_A O1_0_ACSR;
	conductor_C O1_0_ACSR;
	conductor_B O4_ACSR;
};

object line_configuration {
	name olc29;
	spacing UNKNOWN;
	conductor_N O4_ACSR;
	conductor_A O336_AAC;
	conductor_C O4_ACSR;
	conductor_B O336_AAC;
};

object line_configuration {
	name olc28;
	spacing UNKNOWN;
	conductor_N O336_AAC;
	conductor_A O336_AAC;
	conductor_C O336_AAC;
	conductor_B O336_AAC;
};

object line_configuration {
	name olc4;
	spacing UNKNOWN;
	conductor_N O336_AAC;
	conductor_A O336_AAC;
	conductor_C O795_AAC;
	conductor_B O795_AAC;
};

object line_configuration {
	name olc5;
	spacing UNKNOWN;
	conductor_N O4_ACSR;
	conductor_A O795_AAC;
	conductor_C O4_ACSR;
	conductor_B O795_AAC;
};

object line_configuration {
	name olc6;
	spacing UNKNOWN;
	conductor_N O4_ACSR;
	conductor_A O795_AAC;
	conductor_C O4_ACSR;
	conductor_B O4_ACSR;
};

object line_configuration {
	name olc7;
	spacing UNKNOWN;
	conductor_N O336_AAC;
	conductor_A O336_AAC;
	conductor_C O4_ACSR;
	conductor_B O4_ACSR;
};

object line_configuration {
	conductor_N O336_AAC;
	spacing UNKNOWN;
	name olc0;
	conductor_B O336_AAC;
};

object line_configuration {
	name olc1;
	spacing UNKNOWN;
	conductor_N O336_AAC;
	conductor_A O336_AAC;
	conductor_B O336_AAC;
};

object line_configuration {
	name olc2;
	spacing UNKNOWN;
	conductor_N O336_AAC;
	conductor_A O795_AAC;
	conductor_C O795_AAC;
	conductor_B O795_AAC;
};

object line_configuration {
	name olc3;
	spacing UNKNOWN;
	conductor_N O1_0_ACSR;
	conductor_A O795_AAC;
	conductor_C O795_AAC;
	conductor_B O1_0_ACSR;
};

object line_configuration {
	name olc8;
	spacing UNKNOWN;
	conductor_N O4_ACSR;
	conductor_A O336_AAC;
	conductor_C O4_ACSR;
	conductor_B O4_ACSR;
};

object line_configuration {
	name olc9;
	spacing UNKNOWN;
	conductor_N O1_0_ACSR;
	conductor_A O336_AAC;
	conductor_C O1_0_ACSR;
	conductor_B O4_ACSR;
};

object line_configuration {
	name olc38;
	spacing UNKNOWN;
	conductor_N O4_ACSR;
	conductor_A O4_ACSR;
	conductor_C O336_AAC;
	conductor_B O336_AAC;
};

object line_configuration {
	name olc39;
	spacing UNKNOWN;
	conductor_N O1_0_ACSR;
	conductor_A O336_AAC;
	conductor_C O336_AAC;
	conductor_B O1_0_ACSR;
};

object line_configuration {
	name olc34;
	spacing UNKNOWN;
	conductor_N O4_ACSR;
	conductor_A O4_ACSR;
	conductor_C O1_0_ACSR;
	conductor_B O4_ACSR;
};

object line_configuration {
	name olc35;
	spacing UNKNOWN;
	conductor_N O4_ACSR;
	conductor_A O4_ACSR;
	conductor_C O795_AAC;
	conductor_B O4_ACSR;
};

object line_configuration {
	name olc36;
	spacing UNKNOWN;
	conductor_N O1_0_ACSR;
	conductor_A O4_ACSR;
	conductor_C O795_AAC;
	conductor_B O1_0_ACSR;
};

object line_configuration {
	name olc37;
	spacing UNKNOWN;
	conductor_N O4_ACSR;
	conductor_A O4_ACSR;
	conductor_C O795_AAC;
	conductor_B O1_0_ACSR;
};

object line_configuration {
	name olc30;
	spacing UNKNOWN;
	conductor_N O1_0_ACSR;
	conductor_A O1_0_ACSR;
	conductor_C O336_AAC;
	conductor_B O336_AAC;
};

object line_configuration {
	name olc31;
	spacing UNKNOWN;
	conductor_N UNKNOWN;
	conductor_A O1_0_ACSR;
	conductor_C O4_ACSR;
	conductor_B O336_AAC;
};

object line_configuration {
	name olc32;
	spacing UNKNOWN;
	conductor_N O1_0_ACSR;
	conductor_A O1_0_ACSR;
	conductor_C O795_AAC;
	conductor_B O795_AAC;
};

object line_configuration {
	name olc33;
	spacing UNKNOWN;
	conductor_N O4_ACSR;
	conductor_A O795_AAC;
	conductor_C O1_0_ACSR;
	conductor_B O4_ACSR;
};

object line_configuration {
	name VU1_0ALphABC;
	spacing VU1_0ALsps;
	conductor_A VU1_0ALcond;
	conductor_C VU1_0ALcond;
	conductor_B VU1_0ALcond;
};

object line_configuration {
	spacing VU1_0ALsps;
	conductor_A VU1_0ALcond;
	name VU1_0ALphA;
};

object line_configuration {
	spacing VU1_0ALsps;
	name VU1_0ALphB;
	conductor_B VU1_0ALcond;
};

object line_configuration {
	spacing VU1_0ALsps;
	name VU1_0ALphC;
	conductor_C VU1_0ALcond;
};

object transformer_configuration {
	name SPCTconfig_1060041827B;
	primary_voltage 4156.92193817;
	install_type POLETOP;
	secondary_voltage 120;
	connect_type SINGLE_PHASE_CENTER_TAPPED;
	impedance 0.00033+0.0022j;
	powerB_rating 5000;
	power_rating 5000;
};

object transformer_configuration {
	name SPCTconfig538107040A;
	primary_voltage 4156.92193817;
	install_type POLETOP;
	secondary_voltage 120;
	connect_type SINGLE_PHASE_CENTER_TAPPED;
	impedance 0.00033+0.0022j;
	powerA_rating 5000;
	power_rating 5000;
};

object transformer_configuration {
	name SPCTconfig538107040B;
	primary_voltage 4156.92193817;
	install_type POLETOP;
	secondary_voltage 120;
	connect_type SINGLE_PHASE_CENTER_TAPPED;
	impedance 0.00033+0.0022j;
	powerB_rating 5000;
	power_rating 5000;
};

object transformer_configuration {
	powerC_rating 5000;
	name SPCTconfig538107040C;
	primary_voltage 4156.92193817;
	install_type POLETOP;
	secondary_voltage 120;
	connect_type SINGLE_PHASE_CENTER_TAPPED;
	impedance 0.00033+0.0022j;
	power_rating 5000;
};

object transformer_configuration {
	name SPCTconfig397381995A;
	primary_voltage 4156.92193817;
	install_type POLETOP;
	secondary_voltage 120;
	connect_type SINGLE_PHASE_CENTER_TAPPED;
	impedance 0.00033+0.0022j;
	powerA_rating 5000;
	power_rating 5000;
};

object transformer_configuration {
	name SPCTconfig397381995B;
	primary_voltage 4156.92193817;
	install_type POLETOP;
	secondary_voltage 120;
	connect_type SINGLE_PHASE_CENTER_TAPPED;
	impedance 0.00033+0.0022j;
	powerB_rating 5000;
	power_rating 5000;
};

object transformer_configuration {
	powerC_rating 5000;
	name SPCTconfig397381995C;
	primary_voltage 4156.92193817;
	install_type POLETOP;
	secondary_voltage 120;
	connect_type SINGLE_PHASE_CENTER_TAPPED;
	impedance 0.00033+0.0022j;
	power_rating 5000;
};

object transformer_configuration {
	name SPCTconfig115601A;
	primary_voltage 4156.92193817;
	install_type POLETOP;
	secondary_voltage 120;
	connect_type SINGLE_PHASE_CENTER_TAPPED;
	impedance 0.00033+0.0022j;
	powerA_rating 5000;
	power_rating 5000;
};

object transformer_configuration {
	powerC_rating 5000;
	name SPCTconfig115601C;
	primary_voltage 4156.92193817;
	install_type POLETOP;
	secondary_voltage 120;
	connect_type SINGLE_PHASE_CENTER_TAPPED;
	impedance 0.00033+0.0022j;
	power_rating 5000;
};

object transformer_configuration {
	name SPCTconfig115601B;
	primary_voltage 4156.92193817;
	install_type POLETOP;
	secondary_voltage 120;
	connect_type SINGLE_PHASE_CENTER_TAPPED;
	impedance 0.00033+0.0022j;
	powerB_rating 5000;
	power_rating 5000;
};

object transformer_configuration {
	name SPCTconfig_357917964A;
	primary_voltage 4156.92193817;
	install_type POLETOP;
	secondary_voltage 120;
	connect_type SINGLE_PHASE_CENTER_TAPPED;
	impedance 0.00033+0.0022j;
	powerA_rating 5000;
	power_rating 5000;
};

object transformer_configuration {
	name SPCTconfig908306220A;
	primary_voltage 4156.92193817;
	install_type POLETOP;
	secondary_voltage 120;
	connect_type SINGLE_PHASE_CENTER_TAPPED;
	impedance 0.00033+0.0022j;
	powerA_rating 5000;
	power_rating 5000;
};

object transformer_configuration {
	powerC_rating 5000;
	name SPCTconfig_357917964C;
	primary_voltage 4156.92193817;
	install_type POLETOP;
	secondary_voltage 120;
	connect_type SINGLE_PHASE_CENTER_TAPPED;
	impedance 0.00033+0.0022j;
	power_rating 5000;
};

object transformer_configuration {
	name SPCTconfig_357917964B;
	primary_voltage 4156.92193817;
	install_type POLETOP;
	secondary_voltage 120;
	connect_type SINGLE_PHASE_CENTER_TAPPED;
	impedance 0.00033+0.0022j;
	powerB_rating 5000;
	power_rating 5000;
};

object transformer_configuration {
	powerC_rating 5000;
	name SPCTconfig_1060041827C;
	primary_voltage 4156.92193817;
	install_type POLETOP;
	secondary_voltage 120;
	connect_type SINGLE_PHASE_CENTER_TAPPED;
	impedance 0.00033+0.0022j;
	power_rating 5000;
};

object transformer_configuration {
	name SPCTconfig1885870658B;
	primary_voltage 4156.92193817;
	install_type POLETOP;
	secondary_voltage 120;
	connect_type SINGLE_PHASE_CENTER_TAPPED;
	impedance 0.00033+0.0022j;
	powerB_rating 5000;
	power_rating 5000;
};

object transformer_configuration {
	name SPCTconfig366661983A;
	primary_voltage 4156.92193817;
	install_type POLETOP;
	secondary_voltage 120;
	connect_type SINGLE_PHASE_CENTER_TAPPED;
	impedance 0.00033+0.0022j;
	powerA_rating 5000;
	power_rating 5000;
};

object transformer_configuration {
	name SPCTconfig366661983B;
	primary_voltage 4156.92193817;
	install_type POLETOP;
	secondary_voltage 120;
	connect_type SINGLE_PHASE_CENTER_TAPPED;
	impedance 0.00033+0.0022j;
	powerB_rating 5000;
	power_rating 5000;
};

object transformer_configuration {
	powerC_rating 5000;
	name SPCTconfig366661983C;
	primary_voltage 4156.92193817;
	install_type POLETOP;
	secondary_voltage 120;
	connect_type SINGLE_PHASE_CENTER_TAPPED;
	impedance 0.00033+0.0022j;
	power_rating 5000;
};

object transformer_configuration {
	powerC_rating 5000;
	name SPCTconfig1885870658C;
	primary_voltage 4156.92193817;
	install_type POLETOP;
	secondary_voltage 120;
	connect_type SINGLE_PHASE_CENTER_TAPPED;
	impedance 0.00033+0.0022j;
	power_rating 5000;
};

object transformer_configuration {
	powerC_rating 5;
	name SPCTconfig1326573195C;
	primary_voltage 4156.92193817;
	install_type POLETOP;
	secondary_voltage 120;
	connect_type SINGLE_PHASE_CENTER_TAPPED;
	impedance 0.00033+0.0022j;
	power_rating 5;
};

object transformer_configuration {
	name SPCTconfig1885870658A;
	primary_voltage 4156.92193817;
	install_type POLETOP;
	secondary_voltage 120;
	connect_type SINGLE_PHASE_CENTER_TAPPED;
	impedance 0.00033+0.0022j;
	powerA_rating 5000;
	power_rating 5000;
};

object transformer_configuration {
	name SPCTconfig106915A;
	primary_voltage 4156.92193817;
	install_type POLETOP;
	secondary_voltage 120;
	connect_type SINGLE_PHASE_CENTER_TAPPED;
	impedance 0.00033+0.0022j;
	powerA_rating 5000;
	power_rating 5000;
};

object transformer_configuration {
	name SPCTconfig2137789178A;
	primary_voltage 4156.92193817;
	install_type POLETOP;
	secondary_voltage 120;
	connect_type SINGLE_PHASE_CENTER_TAPPED;
	impedance 0.00033+0.0022j;
	powerA_rating 5000;
	power_rating 5000;
};

object transformer_configuration {
	powerC_rating 5000;
	name SPCTconfig100211C;
	primary_voltage 4156.92193817;
	install_type POLETOP;
	secondary_voltage 120;
	connect_type SINGLE_PHASE_CENTER_TAPPED;
	impedance 0.00033+0.0022j;
	power_rating 5000;
};

object transformer_configuration {
	name SPCTconfig106915B;
	primary_voltage 4156.92193817;
	install_type POLETOP;
	secondary_voltage 120;
	connect_type SINGLE_PHASE_CENTER_TAPPED;
	impedance 0.00033+0.0022j;
	powerB_rating 5000;
	power_rating 5000;
};

object transformer_configuration {
	name SPCTconfig_530541596A;
	primary_voltage 4156.92193817;
	install_type POLETOP;
	secondary_voltage 120;
	connect_type SINGLE_PHASE_CENTER_TAPPED;
	impedance 0.00033+0.0022j;
	powerA_rating 5000;
	power_rating 5000;
};

object transformer_configuration {
	powerC_rating 5000;
	name SPCTconfig106915C;
	primary_voltage 4156.92193817;
	install_type POLETOP;
	secondary_voltage 120;
	connect_type SINGLE_PHASE_CENTER_TAPPED;
	impedance 0.00033+0.0022j;
	power_rating 5000;
};

object transformer_configuration {
	name SPCTconfig1330021255B;
	primary_voltage 4156.92193817;
	install_type POLETOP;
	secondary_voltage 120;
	connect_type SINGLE_PHASE_CENTER_TAPPED;
	impedance 0.00033+0.0022j;
	powerB_rating 5000;
	power_rating 5000;
};

object transformer_configuration {
	powerC_rating 5000;
	name SPCTconfig115607C;
	primary_voltage 4156.92193817;
	install_type POLETOP;
	secondary_voltage 120;
	connect_type SINGLE_PHASE_CENTER_TAPPED;
	impedance 0.00033+0.0022j;
	power_rating 5000;
};

object transformer_configuration {
	name SPCTconfig115607B;
	primary_voltage 4156.92193817;
	install_type POLETOP;
	secondary_voltage 120;
	connect_type SINGLE_PHASE_CENTER_TAPPED;
	impedance 0.00033+0.0022j;
	powerB_rating 5000;
	power_rating 5000;
};

object transformer_configuration {
	name SPCTconfig115607A;
	primary_voltage 4156.92193817;
	install_type POLETOP;
	secondary_voltage 120;
	connect_type SINGLE_PHASE_CENTER_TAPPED;
	impedance 0.00033+0.0022j;
	powerA_rating 5000;
	power_rating 5000;
};

object transformer_configuration {
	powerC_rating 5000;
	name SPCTconfig_530541596C;
	primary_voltage 4156.92193817;
	install_type POLETOP;
	secondary_voltage 120;
	connect_type SINGLE_PHASE_CENTER_TAPPED;
	impedance 0.00033+0.0022j;
	power_rating 5000;
};

object transformer_configuration {
	name SPCTconfig1330021255A;
	primary_voltage 4156.92193817;
	install_type POLETOP;
	secondary_voltage 120;
	connect_type SINGLE_PHASE_CENTER_TAPPED;
	impedance 0.00033+0.0022j;
	powerA_rating 5000;
	power_rating 5000;
};

object transformer_configuration {
	name SPCTconfig100211A;
	primary_voltage 4156.92193817;
	install_type POLETOP;
	secondary_voltage 120;
	connect_type SINGLE_PHASE_CENTER_TAPPED;
	impedance 0.00033+0.0022j;
	powerA_rating 5000;
	power_rating 5000;
};

object transformer_configuration {
	powerC_rating 5000;
	name SPCTconfig1330021255C;
	primary_voltage 4156.92193817;
	install_type POLETOP;
	secondary_voltage 120;
	connect_type SINGLE_PHASE_CENTER_TAPPED;
	impedance 0.00033+0.0022j;
	power_rating 5000;
};

object transformer_configuration {
	name SPCTconfig100208A;
	primary_voltage 4156.92193817;
	install_type POLETOP;
	secondary_voltage 120;
	connect_type SINGLE_PHASE_CENTER_TAPPED;
	impedance 0.00033+0.0022j;
	powerA_rating 5000;
	power_rating 5000;
};

object transformer_configuration {
	name SPCTconfig100208B;
	primary_voltage 4156.92193817;
	install_type POLETOP;
	secondary_voltage 120;
	connect_type SINGLE_PHASE_CENTER_TAPPED;
	impedance 0.00033+0.0022j;
	powerB_rating 5000;
	power_rating 5000;
};

object transformer_configuration {
	name SPCTconfig1870683921B;
	primary_voltage 4156.92193817;
	install_type POLETOP;
	secondary_voltage 120;
	connect_type SINGLE_PHASE_CENTER_TAPPED;
	impedance 0.00033+0.0022j;
	powerB_rating 5000;
	power_rating 5000;
};

object transformer_configuration {
	name SPCTconfig1269672323B;
	primary_voltage 4156.92193817;
	install_type POLETOP;
	secondary_voltage 120;
	connect_type SINGLE_PHASE_CENTER_TAPPED;
	impedance 0.00033+0.0022j;
	powerB_rating 5000;
	power_rating 5000;
};

object transformer_configuration {
	name SPCTconfig1870683921A;
	primary_voltage 4156.92193817;
	install_type POLETOP;
	secondary_voltage 120;
	connect_type SINGLE_PHASE_CENTER_TAPPED;
	impedance 0.00033+0.0022j;
	powerA_rating 5000;
	power_rating 5000;
};

object transformer_configuration {
	name SPCTconfig_569511642A;
	primary_voltage 4156.92193817;
	install_type POLETOP;
	secondary_voltage 120;
	connect_type SINGLE_PHASE_CENTER_TAPPED;
	impedance 0.00033+0.0022j;
	powerA_rating 5000;
	power_rating 5000;
};

object transformer_configuration {
	name SPCTconfig908306220B;
	primary_voltage 4156.92193817;
	install_type POLETOP;
	secondary_voltage 120;
	connect_type SINGLE_PHASE_CENTER_TAPPED;
	impedance 0.00033+0.0022j;
	powerB_rating 5000;
	power_rating 5000;
};

object transformer_configuration {
	powerC_rating 5000;
	name SPCTconfig1870683921C;
	primary_voltage 4156.92193817;
	install_type POLETOP;
	secondary_voltage 120;
	connect_type SINGLE_PHASE_CENTER_TAPPED;
	impedance 0.00033+0.0022j;
	power_rating 5000;
};

object transformer_configuration {
	powerC_rating 5000;
	name SPCTconfig1269672323C;
	primary_voltage 4156.92193817;
	install_type POLETOP;
	secondary_voltage 120;
	connect_type SINGLE_PHASE_CENTER_TAPPED;
	impedance 0.00033+0.0022j;
	power_rating 5000;
};

object transformer_configuration {
	name SPCTconfig106920A;
	primary_voltage 4156.92193817;
	install_type POLETOP;
	secondary_voltage 120;
	connect_type SINGLE_PHASE_CENTER_TAPPED;
	impedance 0.00033+0.0022j;
	powerA_rating 5000;
	power_rating 5000;
};

object transformer_configuration {
	name SPCTconfig106920B;
	primary_voltage 4156.92193817;
	install_type POLETOP;
	secondary_voltage 120;
	connect_type SINGLE_PHASE_CENTER_TAPPED;
	impedance 0.00033+0.0022j;
	powerB_rating 5000;
	power_rating 5000;
};

object transformer_configuration {
	name SPCTconfig141032265B;
	primary_voltage 4156.92193817;
	install_type POLETOP;
	secondary_voltage 120;
	connect_type SINGLE_PHASE_CENTER_TAPPED;
	impedance 0.00033+0.0022j;
	powerB_rating 5000;