clock {
	timezone PST+8PDT;
	starttime '2009-01-01 12:00:00';
	stoptime '2009-01-01 15:00:00';
};

#set profiler=1;
module tape;
module powerflow {
	solver_method NR;
	default_maximum_voltage_error 1e-9;
};

module assert;
object regulator {
	phases ABCN;
	from R1-12-47-3_node_53;
	name R1-12-47-3_reg_1;
	to R1-12-47-3_meter_22;
	configuration feeder_reg_cfg;
};

object recorder {
	name recorder_999;
	parent R1-12-47-3_reg_1;
	interval 60;
	limit 1440;
	file "superModelTiny.regOutput.csv";
	property tap_A,tap_B,tap_C,power_in_A.real,power_in_A.imag,power_in_B.real,power_in_B.imag,power_in_C.real,power_in_C.imag,power_in.real,power_in.imag;
};

object regulator_configuration {
	Control OUTPUT_VOLTAGE;
	raise_taps 16;
	name feeder_reg_cfg;
	band_center 7200.0;
	tap_pos_A 0;
	tap_pos_B 0;
	connect_type WYE_WYE;
	time_delay 30;
	regulation 0.10;
	band_width 120;
	tap_pos_C 0;
	lower_taps 16;
};

object fuse {
	status CLOSED;
	phases AN;
	from R1-12-47-3_node_19;
	name R1-12-47-3_fuse_1;
	current_limit 10000;
	to R1-12-47-3_node_20;
	mean_replacement_time 1000;
};

object fuse {
	status CLOSED;
	phases BCN;
	from R1-12-47-3_node_21;
	name R1-12-47-3_fuse_2;
	current_limit 100000;
	to R1-12-47-3_node_23;
	mean_replacement_time 1000;
};

object fuse {
	status CLOSED;
	phases AN;
	from R1-12-47-3_node_27;
	name R1-12-47-3_fuse_3;
	current_limit 400000;
	to R1-12-47-3_node_28;
	mean_replacement_time 1000;
};

object fuse {
	status CLOSED;
	phases AN;
	from R1-12-47-3_node_32;
	name R1-12-47-3_fuse_4;
	current_limit 100000;
	to R1-12-47-3_node_33;
	mean_replacement_time 1000;
};

object fuse {
	status CLOSED;
	phases ABCN;
	from R1-12-47-3_node_32;
	name R1-12-47-3_fuse_5;
	current_limit 80000;
	to R1-12-47-3_node_35;
	mean_replacement_time 1000;
};

object fuse {
	status CLOSED;
	phases BN;
	from R1-12-47-3_node_36;
	name R1-12-47-3_fuse_6;
	current_limit 400000;
	to R1-12-47-3_node_37;
	mean_replacement_time 1000;
};

object fuse {
	status CLOSED;
	phases BN;
	from R1-12-47-3_node_36;
	name R1-12-47-3_fuse_7;
	current_limit 400000;
	to R1-12-47-3_node_40;
	mean_replacement_time 1000;
};

object line_configuration {
	name line_configuration_17;
	spacing line_spacing_9;
	conductor_N underground_line_conductor_2;
	conductor_A underground_line_conductor_2;
	conductor_C underground_line_conductor_2;
	conductor_B underground_line_conductor_2;
};

object line_configuration {
	name line_configuration_18;
	spacing line_spacing_10;
	conductor_N overhead_line_conductor_3;
	conductor_A overhead_line_conductor_3;
	conductor_C overhead_line_conductor_3;
	conductor_B overhead_line_conductor_3;
};

object line_configuration {
	name line_configuration_19;
	spacing line_spacing_11;
	conductor_N overhead_line_conductor_4;
	conductor_A overhead_line_conductor_4;
	conductor_C overhead_line_conductor_4;
};

object line_configuration {
	conductor_N overhead_line_conductor_5;
	spacing line_spacing_12;
	name line_configuration_20;
	conductor_C overhead_line_conductor_5;
};

object line_configuration {
	name line_configuration_21;
	spacing line_spacing_10;
	conductor_N overhead_line_conductor_4;
	conductor_A overhead_line_conductor_4;
	conductor_C overhead_line_conductor_4;
	conductor_B overhead_line_conductor_4;
};

object line_configuration {
	name line_configuration_22;
	spacing line_spacing_11;
	conductor_N overhead_line_conductor_5;
	conductor_A overhead_line_conductor_5;
	conductor_C overhead_line_conductor_5;
};

object line_configuration {
	conductor_N overhead_line_conductor_4;
	spacing line_spacing_12;
	name line_configuration_23;
	conductor_C overhead_line_conductor_4;
};

object line_configuration {
	name line_configuration_24;
	spacing line_spacing_10;
	conductor_N overhead_line_conductor_6;
	conductor_A overhead_line_conductor_6;
	conductor_C overhead_line_conductor_6;
	conductor_B overhead_line_conductor_6;
};

object line_configuration {
	conductor_A overhead_line_conductor_6;
	conductor_N overhead_line_conductor_6;
	spacing line_spacing_13;
	name line_configuration_25;
};

object line_configuration {
	name line_configuration_26;
	spacing line_spacing_10;
	conductor_N overhead_line_conductor_7;
	conductor_A overhead_line_conductor_7;
	conductor_C overhead_line_conductor_7;
	conductor_B overhead_line_conductor_7;
};

object line_configuration {
	name line_configuration_27;
	spacing line_spacing_10;
	conductor_N overhead_line_conductor_5;
	conductor_A overhead_line_conductor_5;
	conductor_C overhead_line_conductor_5;
	conductor_B overhead_line_conductor_5;
};

object line_configuration {
	name line_configuration_28;
	spacing line_spacing_14;
	conductor_N underground_line_conductor_8;
	conductor_C underground_line_conductor_8;
	conductor_B underground_line_conductor_8;
};

object line_configuration {
	conductor_N underground_line_conductor_8;
	spacing line_spacing_15;
	name line_configuration_29;
	conductor_B underground_line_conductor_8;
};

object line_configuration {
	name line_configuration_30;
	spacing line_spacing_16;
	conductor_N overhead_line_conductor_5;
	conductor_C overhead_line_conductor_5;
	conductor_B overhead_line_conductor_5;
};

object line_configuration {
	conductor_A overhead_line_conductor_4;
	conductor_N overhead_line_conductor_4;
	spacing line_spacing_13;
	name line_configuration_31;
};

object line_configuration {
	conductor_A overhead_line_conductor_5;
	conductor_N overhead_line_conductor_5;
	spacing line_spacing_13;
	name line_configuration_32;
};

object line_configuration {
	name line_configuration_33;
	spacing line_spacing_9;
	conductor_N underground_line_conductor_8;
	conductor_A underground_line_conductor_8;
	conductor_C underground_line_conductor_8;
	conductor_B underground_line_conductor_8;
};

object line_spacing {
	distance_BC 0.0 in;
	name line_spacing_9;
	distance_CN 0.0 in;
	distance_AN 0.0 in;
	distance_AB 0.0 in;
	distance_BN 0.0 in;
	distance_AC 0.0 in;
};

object line_spacing {
	distance_BC 57.6 in;
	name line_spacing_10;
	distance_CN 84.0 in;
	distance_AN 84.0 in;
	distance_AB 57.6 in;
	distance_BN 84.0 in;
	distance_AC 57.6 in;
};

object line_spacing {
	distance_CN 84.0 in;
	distance_AN 84.0 in;
	name line_spacing_11;
	distance_AC 57.6 in;
};

object line_spacing {
	distance_CN 84.0 in;
	name line_spacing_12;
};

object line_spacing {
	distance_AN 84.0 in;
	name line_spacing_13;
};

object line_spacing {
	distance_CN 0.0 in;
	distance_BC 0.0 in;
	name line_spacing_14;
	distance_BN 0.0 in;
};

object line_spacing {
	name line_spacing_15;
	distance_BN 0.0 in;
};

object line_spacing {
	distance_CN 84.0 in;
	distance_BC 57.6 in;
	name line_spacing_16;
	distance_BN 84.0 in;
};

object load {
	phases CN;
	name R1-12-47-3_load_1;
	parent R1-12-47-3_meter_1;
	load_class C;
	voltage_C -3600+6235j;
	constant_power_C 54848.3315+1161.1672j;
	nominal_voltage 7200;
};

object complex_assert {
	target voltage_A;
	parent R1-12-47-3_load_1;
	within 1;
	value +0+0j;
	name R1-12-47-3_load_1complex_assert41;
};

object complex_assert {
	target voltage_B;
	parent R1-12-47-3_load_1;
	within 1;
	value +0+0j;
	name R1-12-47-3_load_1complex_assert42;
};

object complex_assert {
	target voltage_C;
	parent R1-12-47-3_load_1;
	within 1;
	value +274.785+118.071d;
	name R1-12-47-3_load_1complex_assert43;
};

object load {
	phases ABCN;
	name R1-12-47-3_load_2;
	parent R1-12-47-3_meter_2;
	load_class C;
	voltage_B -3600-6235j;
	voltage_C -3600+6235j;
	voltage_A 7200+0.0j;
	constant_power_C 16454.4994+348.3502j;
	constant_power_B 5945.0578+187.089j;
	constant_power_A 18397.9491+344.1439j;
	nominal_voltage 7200;
};

object load {
	phases ACN;
	name R1-12-47-3_load_3;
	parent R1-12-47-3_meter_3;
	load_class C;
	voltage_C -3600+6235j;
	voltage_A 7200+0.0j;
	constant_power_C 27424.1657+580.5836j;
	constant_power_A 0+0j;
	nominal_voltage 7200;
};

object load {
	phases CN;
	name R1-12-47-3_load_4;
	parent R1-12-47-3_meter_4;
	load_class C;
	voltage_C -3600+6235j;
	constant_power_C 54848.3315+1161.1672j;
	nominal_voltage 7200;
};

object load {
	phases CN;
	name R1-12-47-3_load_5;
	parent R1-12-47-3_meter_5;
	load_class C;
	voltage_C -3600+6235j;
	constant_power_C 54848.3315+1161.1672j;
	nominal_voltage 7200;
};

object load {
	phases ABCN;
	name R1-12-47-3_load_6;
	parent R1-12-47-3_meter_6;
	load_class C;
	voltage_B -3600-6235j;
	voltage_C -3600+6235j;
	voltage_A 7200+0.0j;
	constant_power_C 82272.4972+1741.7508j;
	constant_power_B 0+0j;
	constant_power_A 0+0j;
	nominal_voltage 7200;
};

object load {
	phases AN;
	name R1-12-47-3_load_7;
	parent R1-12-47-3_meter_7;
	load_class C;
	voltage_A 7200+0.0j;
	nominal_voltage 7200;
	constant_power_A 42928.5478+803.0025j;
};

object load {
	phases ABCN;
	name R1-12-47-3_load_8;
	parent R1-12-47-3_meter_8;
	load_class C;
	voltage_B -3600-6235j;
	voltage_C -3600+6235j;
	voltage_A 7200+0.0j;
	constant_power_C 27424.1657+580.5836j;
	constant_power_B 9908.4297+311.8149j;
	constant_power_A 30663.2485+573.5732j;
	nominal_voltage 7200;
};

object load {
	phases BN;
	name R1-12-47-3_load_9;
	parent R1-12-47-3_meter_9;
	load_class C;
	voltage_B -3600-6235j;
	nominal_voltage 7200;
	constant_power_B 29725.289+935.4448j;
};

object load {
	phases ABCN;
	name R1-12-47-3_load_10;
	parent R1-12-47-3_meter_10;
	load_class C;
	voltage_B -3600-6235j;
	voltage_C -3600+6235j;
	voltage_A 7200+0.0j;
	constant_power_C 54848.3315+1161.1672j;
	constant_power_B 9908.4297+311.8149j;
	constant_power_A 0+0j;
	nominal_voltage 7200;
};

object load {
	phases AN;
	name R1-12-47-3_load_11;
	parent R1-12-47-3_meter_11;
	load_class C;
	voltage_A 7200+0.0j;
	nominal_voltage 7200;
	constant_power_A 110387.6944+2064.8636j;
};

object load {
	phases AN;
	name R1-12-47-3_load_12;
	parent R1-12-47-3_meter_12;
	load_class C;
	voltage_A 7200+0.0j;
	nominal_voltage 7200;
	constant_power_A 30663.2485+573.5732j;
};

object load {
	phases AN;
	name R1-12-47-3_load_13;
	parent R1-12-47-3_meter_13;
	load_class C;
	voltage_A 7200+0.0j;
	nominal_voltage 7200;
	constant_power_A 30663.2485+573.5732j;
};

object load {
	phases AN;
	name R1-12-47-3_load_14;
	parent R1-12-47-3_meter_14;
	load_class C;
	voltage_A 7200+0.0j;
	nominal_voltage 7200;
	constant_power_A 30663.2485+573.5732j;
};

object load {
	phases BN;
	name R1-12-47-3_load_15;
	parent R1-12-47-3_meter_15;
	load_class C;
	voltage_B -3600-6235j;
	nominal_voltage 7200;
	constant_power_B 19800+600j;
};

object complex_assert {
	target voltage_A;
	parent R1-12-47-3_load_15;
	within 1;
	value +0+0j;
	name R1-12-47-3_load_15complex_assert58;
};

object complex_assert {
	target voltage_B;
	parent R1-12-47-3_load_15;
	within 1;
	value -141.403-234.952j;
	name R1-12-47-3_load_15complex_assert59;
};

object complex_assert {
	target voltage_C;
	parent R1-12-47-3_load_15;
	within 1;
	value +0+0j;
	name R1-12-47-3_load_15complex_assert60;
};

object load {
	phases BN;
	name R1-12-47-3_load_16;
	parent R1-12-47-3_meter_16;
	load_class C;
	voltage_B -3600-6235j;
	nominal_voltage 7200;
	constant_power_B 66200+2100j;
};

object load {
	phases BN;
	name R1-12-47-3_load_17;
	parent R1-12-47-3_meter_17;
	load_class C;
	voltage_B -3600-6235j;
	nominal_voltage 7200;
	constant_power_B 19800+600j;
};

object load {
	phases ABCN;
	name R1-12-47-3_load_18;
	parent R1-12-47-3_meter_18;
	load_class C;
	voltage_B -3600-6235j;
	voltage_C -3600+6235j;
	voltage_A 7200+0.0j;
	constant_power_C 54848.3315+1161.1672j;
	constant_power_B 19816.8593+623.6299j;
	constant_power_A 61326.4969+1147.1465j;
	nominal_voltage 7200;
};

object load {
	phases AN;
	name R1-12-47-3_load_19;
	parent R1-12-47-3_meter_19;
	load_class C;
	voltage_A 7200+0.0j;
	nominal_voltage 7200;
	constant_power_A 30663.2485+573.5732j;
};

object load {
	phases ABCN;
	name R1-12-47-3_load_20;
	parent R1-12-47-3_meter_20;
	load_class C;
	voltage_B -3600-6235j;
	voltage_C -3600+6235j;
	voltage_A 7200+0.0j;
	constant_power_C 41136.2486+870.8754j;
	constant_power_B 14862.6445+467.7224j;
	constant_power_A 45994.8727+860.3598j;
	nominal_voltage 7200;
};

object load {
	phases ABCN;
	name R1-12-47-3_load_21;
	parent R1-12-47-3_meter_21;
	load_class C;
	voltage_B -3600-6235j;
	voltage_C -3600+6235j;
	voltage_A 7200+0.0j;
	constant_power_C 27424.1657+580.5836j;
	constant_power_B 9908.4297+311.8149j;
	constant_power_A 30663.2485+573.5732j;
	nominal_voltage 7200;
};

object meter {
	voltage_C -3600+6235j;
	phases CN;
	nominal_voltage 7200;
	name R1-12-47-3_meter_1;
};

object complex_assert {
	target voltage_A;
	parent R1-12-47-3_meter_1;
	within 1;
	value +0+0j;
	name R1-12-47-3_meter_1complex_assert68;
};

object complex_assert {
	target voltage_B;
	parent R1-12-47-3_meter_1;
	within 1;
	value +0+0j;
	name R1-12-47-3_meter_1complex_assert69;
};

object complex_assert {
	target voltage_C;
	parent R1-12-47-3_meter_1;
	within 1;
	value +274.785+118.071d;
	name R1-12-47-3_meter_1complex_assert70;
};

object meter {
	phases ABCN;
	name R1-12-47-3_meter_2;
	voltage_B -3600-6235j;
	voltage_C -3600+6235j;
	voltage_A 7200+0.0j;
	nominal_voltage 7200;
};

object meter {
	phases ACN;
	name R1-12-47-3_meter_3;
	voltage_C -3600+6235j;
	voltage_A 7200+0.0j;
	nominal_voltage 7200;
};

object meter {
	voltage_C -3600+6235j;
	phases CN;
	nominal_voltage 7200;
	name R1-12-47-3_meter_4;
};

object meter {
	voltage_C -3600+6235j;
	phases CN;
	nominal_voltage 7200;
	name R1-12-47-3_meter_5;
};

object meter {
	phases ABCN;
	name R1-12-47-3_meter_6;
	voltage_B -3600-6235j;
	voltage_C -3600+6235j;
	voltage_A 7200+0.0j;
	nominal_voltage 7200;
};

object meter {
	phases AN;
	nominal_voltage 7200;
	name R1-12-47-3_meter_7;
	voltage_A 7200+0.0j;
};

object meter {
	phases ABCN;
	name R1-12-47-3_meter_8;
	voltage_B -3600-6235j;
	voltage_C -3600+6235j;
	voltage_A 7200+0.0j;
	nominal_voltage 7200;
};

object meter {
	voltage_B -3600-6235j;
	phases BN;
	nominal_voltage 7200;
	name R1-12-47-3_meter_9;
};

object meter {
	phases ABCN;
	name R1-12-47-3_meter_10;
	voltage_B -3600-6235j;
	voltage_C -3600+6235j;
	voltage_A 7200+0.0j;
	nominal_voltage 7200;
};

object meter {
	phases AN;
	nominal_voltage 7200;
	name R1-12-47-3_meter_11;
	voltage_A 7200+0.0j;
};

object meter {
	phases AN;
	nominal_voltage 7200;
	name R1-12-47-3_meter_12;
	voltage_A 7200+0.0j;
};

object meter {
	phases AN;
	nominal_voltage 7200;
	name R1-12-47-3_meter_13;
	voltage_A 7200+0.0j;
};

object meter {
	phases AN;
	nominal_voltage 7200;
	name R1-12-47-3_meter_14;
	voltage_A 7200+0.0j;
};

object meter {
	voltage_B -3600-6235j;
	phases BN;
	nominal_voltage 7200;
	name R1-12-47-3_meter_15;
};

object meter {
	voltage_B -3600-6235j;
	phases BN;
	nominal_voltage 7200;
	name R1-12-47-3_meter_16;
};

object meter {
	voltage_B -3600-6235j;
	phases BN;
	nominal_voltage 7200;
	name R1-12-47-3_meter_17;
};

object meter {
	phases ABCN;
	name R1-12-47-3_meter_18;
	voltage_B -3600-6235j;
	voltage_C -3600+6235j;
	voltage_A 7200+0.0j;
	nominal_voltage 7200;
};

object meter {
	phases AN;
	nominal_voltage 7200;
	name R1-12-47-3_meter_19;
	voltage_A 7200+0.0j;
};

object meter {
	phases ABCN;
	name R1-12-47-3_meter_20;
	voltage_B -3600-6235j;
	voltage_C -3600+6235j;
	voltage_A 7200+0.0j;
	nominal_voltage 7200;
};

object meter {
	phases ABCN;
	name R1-12-47-3_meter_21;
	voltage_B -3600-6235j;
	voltage_C -3600+6235j;
	voltage_A 7200+0.0j;
	nominal_voltage 7200;
};

object complex_assert {
	target voltage_A;
	parent R1-12-47-3_meter_21;
	within 1;
	value +273.809-4.01281j;
	name R1-12-47-3_meter_21complex_assert91;
};

object complex_assert {
	target voltage_B;
	parent R1-12-47-3_meter_21;
	within 1;
	value -139.467-236.952j;
	name R1-12-47-3_meter_21complex_assert92;
};

object complex_assert {
	target voltage_C;
	parent R1-12-47-3_meter_21;
	within 1;
	value -134.842+239.586j;
	name R1-12-47-3_meter_21complex_assert93;
};

object meter {
	phases ABCN;
	name R1-12-47-3_meter_22;
	voltage_B -3600-6235j;
	voltage_C -3600+6235j;
	voltage_A 7200+0.0j;
	nominal_voltage 7200;
};

object complex_assert {
	target voltage_A;
	parent R1-12-47-3_meter_22;
	within 1;
	value +7199.99+0.00036507j;
	name R1-12-47-3_meter_22complex_assert95;
};

object complex_assert {
	target voltage_B;
	parent R1-12-47-3_meter_22;
	within 1;
	value -3600-6235j;
	name R1-12-47-3_meter_22complex_assert96;
};

object complex_assert {
	target voltage_C;
	parent R1-12-47-3_meter_22;
	within 1;
	value -3600+6234.99j;
	name R1-12-47-3_meter_22complex_assert97;
};

object node {
	phases ABCN;
	name R1-12-47-3_node_1;
	voltage_B -3600-6235j;
	voltage_C -3600+6235j;
	voltage_A 7200+0.0j;
	nominal_voltage 7200;
};

object complex_assert {
	target voltage_A;
	parent R1-12-47-3_node_1;
	within 1;
	value +7134.24-41.4401j;
	name R1-12-47-3_node_1complex_assert99;
};

object complex_assert {
	target voltage_B;
	parent R1-12-47-3_node_1;
	within 1;
	value -3609.81-6170.13j;
	name R1-12-47-3_node_1complex_assert100;
};

object complex_assert {
	target voltage_C;
	parent R1-12-47-3_node_1;
	within 1;
	value -3559.55+6213.46j;
	name R1-12-47-3_node_1complex_assert101;
};

object node {
	phases ABCN;
	name R1-12-47-3_node_2;
	voltage_B -3600-6235j;
	voltage_C -3600+6235j;
	voltage_A 7200+0.0j;
	nominal_voltage 7200;
};

object node {
	phases ABCN;
	name R1-12-47-3_node_3;
	voltage_B -3600-6235j;
	voltage_C -3600+6235j;
	voltage_A 7200+0.0j;
	nominal_voltage 7200;
};

object node {
	phases ABCN;
	name R1-12-47-3_node_4;
	voltage_B -3600-6235j;
	voltage_C -3600+6235j;
	voltage_A 7200+0.0j;
	nominal_voltage 7200;
};

object node {
	phases ACN;
	name R1-12-47-3_node_5;
	voltage_C -3600+6235j;
	voltage_A 7200+0.0j;
	nominal_voltage 7200;
};

object node {
	voltage_C -3600+6235j;
	phases CN;
	nominal_voltage 7200;
	name R1-12-47-3_node_6;
};

object node {
	phases ABCN;
	name R1-12-47-3_node_7;
	voltage_B -3600-6235j;
	voltage_C -3600+6235j;
	voltage_A 7200+0.0j;
	nominal_voltage 7200;
};

object node {
	phases ABCN;
	name R1-12-47-3_node_8;
	voltage_B -3600-6235j;
	voltage_C -3600+6235j;
	voltage_A 7200+0.0j;
	nominal_voltage 7200;
};

object node {
	phases ABCN;
	name R1-12-47-3_node_9;
	voltage_B -3600-6235j;
	voltage_C -3600+6235j;
	voltage_A 7200+0.0j;
	nominal_voltage 7200;
};

object node {
	phases ABCN;
	name R1-12-47-3_node_10;
	voltage_B -3600-6235j;
	voltage_C -3600+6235j;
	voltage_A 7200+0.0j;
	nominal_voltage 7200;
};

object node {
	phases ACN;
	name R1-12-47-3_node_11;
	voltage_C -3600+6235j;
	voltage_A 7200+0.0j;
	nominal_voltage 7200;
};

object node {
	voltage_C -3600+6235j;
	phases CN;
	nominal_voltage 7200;
	name R1-12-47-3_node_12;
};

object node {
	phases ACN;
	name R1-12-47-3_node_13;
	voltage_C -3600+6235j;
	voltage_A 7200+0.0j;
	nominal_voltage 7200;
};

object node {
	voltage_C -3600+6235j;
	phases CN;
	nominal_voltage 7200;
	name R1-12-47-3_node_14;
};

object node {
	phases ABCN;
	name R1-12-47-3_node_15;
	voltage_B -3600-6235j;
	voltage_C -3600+6235j;
	voltage_A 7200+0.0j;
	nominal_voltage 7200;
};

object node {
	phases ABCN;
	name R1-12-47-3_node_16;
	voltage_B -3600-6235j;
	voltage_C -3600+6235j;
	voltage_A 7200+0.0j;
	nominal_voltage 7200;
};

object node {
	phases ABCN;
	name R1-12-47-3_node_17;
	voltage_B -3600-6235j;
	voltage_C -3600+6235j;
	voltage_A 7200+0.0j;
	nominal_voltage 7200;
};

object node {
	phases ABCN;
	name R1-12-47-3_node_18;
	voltage_B -3600-6235j;
	voltage_C -3600+6235j;
	voltage_A 7200+0.0j;
	nominal_voltage 7200;
};

object complex_assert {
	target voltage_A;
	parent R1-12-47-3_node_18;
	within 1;
	value +7151.41-34.9036j;
	name R1-12-47-3_node_18complex_assert119;
};

object complex_assert {
	target voltage_B;
	parent R1-12-47-3_node_18;
	within 1;
	value -3607.34-6188.04j;
	name R1-12-47-3_node_18complex_assert120;
};

object complex_assert {
	target voltage_C;
	parent R1-12-47-3_node_18;
	within 1;
	value -3562.95+6217.09j;
	name R1-12-47-3_node_18complex_assert121;
};

object node {
	phases ABCN;
	name R1-12-47-3_node_19;
	voltage_B -3600-6235j;
	voltage_C -3600+6235j;
	voltage_A 7200+0.0j;
	nominal_voltage 7200;
};

object complex_assert {
	target voltage_A;
	parent R1-12-47-3_node_19;
	within 1;
	value +7149.61-35.8921j;
	name R1-12-47-3_node_19complex_assert123;
};

object complex_assert {
	target voltage_B;
	parent R1-12-47-3_node_19;
	within 1;
	value -3607.48-6187.37j;
	name R1-12-47-3_node_19complex_assert124;
};

object complex_assert {
	target voltage_C;
	parent R1-12-47-3_node_19;
	within 1;
	value -3562.62+6216.46j;
	name R1-12-47-3_node_19complex_assert125;
};

object node {
	phases AN;
	nominal_voltage 7200;
	name R1-12-47-3_node_20;
	voltage_A 7200+0.0j;
};

object node {
	phases ABCN;
	name R1-12-47-3_node_21;
	voltage_B -3600-6235j;
	voltage_C -3600+6235j;
	voltage_A 7200+0.0j;
	nominal_voltage 7200;
};

object node {
	phases ABCN;
	name R1-12-47-3_node_22;
	voltage_B -3600-6235j;
	voltage_C -3600+6235j;
	voltage_A 7200+0.0j;
	nominal_voltage 7200;
};

object node {
	phases BCN;
	name R1-12-47-3_node_23;
	voltage_B -3600-6235j;
	voltage_C -3600+6235j;
	nominal_voltage 7200;
};

object node {
	voltage_B -3600-6235j;
	phases BN;
	nominal_voltage 7200;
	name R1-12-47-3_node_24;
};

object node {
	phases BCN;
	name R1-12-47-3_node_25;
	voltage_B -3600-6235j;
	voltage_C -3600+6235j;
	nominal_voltage 7200;
};

object node {
	phases BCN;
	name R1-12-47-3_node_26;
	voltage_B -3600-6235j;
	voltage_C -3600+6235j;
	nominal_voltage 7200;
};

object node {
	phases ABCN;
	name R1-12-47-3_node_27;
	voltage_B -3600-6235j;
	voltage_C -3600+6235j;
	voltage_A 7200+0.0j;
	nominal_voltage 7200;
};

object node {
	phases AN;
	nominal_voltage 7200;
	name R1-12-47-3_node_28;
	voltage_A 7200+0.0j;
};

object node {
	phases AN;
	nominal_voltage 7200;
	name R1-12-47-3_node_29;
	voltage_A 7200+0.0j;
};

object node {
	phases AN;
	nominal_voltage 7200;
	name R1-12-47-3_node_30;
	voltage_A 7200+0.0j;
};

object node {
	phases ABCN;
	name R1-12-47-3_node_31;
	voltage_B -3600-6235j;
	voltage_C -3600+6235j;
	voltage_A 7200+0.0j;
	nominal_voltage 7200;
};

object node {
	phases ABCN;
	name R1-12-47-3_node_32;
	voltage_B -3600-6235j;
	voltage_C -3600+6235j;
	voltage_A 7200+0.0j;
	nominal_voltage 7200;
};

object node {
	phases AN;
	nominal_voltage 7200;
	name R1-12-47-3_node_33;
	voltage_A 7200+0.0j;
};

object node {
	phases ABCN;
	name R1-12-47-3_node_34;
	voltage_B -3600-6235j;
	voltage_C -3600+6235j;
	voltage_A 7200+0.0j;
	nominal_voltage 7200;
};

object node {
	phases ABCN;
	name R1-12-47-3_node_35;
	voltage_B -3600-6235j;
	voltage_C -3600+6235j;
	voltage_A 7200+0.0j;
	nominal_voltage 7200;
};

object node {
	phases ABCN;
	name R1-12-47-3_node_36;
	voltage_B -3600-6235j;
	voltage_C -3600+6235j;
	voltage_A 7200+0.0j;
	nominal_voltage 7200;
};

object node {
	voltage_B -3600-6235j;
	phases BN;
	nominal_voltage 7200;
	name R1-12-47-3_node_37;
};

object node {
	voltage_B -3600-6235j;
	phases BN;
	nominal_voltage 7200;
	name R1-12-47-3_node_38;
};

object node {
	voltage_B -3600-6235j;
	phases BN;
	nominal_voltage 7200;
	name R1-12-47-3_node_39;
};

object node {
	voltage_B -3600-6235j;
	phases BN;
	nominal_voltage 7200;
	name R1-12-47-3_node_40;
};

object node {
	phases ABCN;
	name R1-12-47-3_node_41;
	voltage_B -3600-6235j;
	voltage_C -3600+6235j;
	voltage_A 7200+0.0j;
	nominal_voltage 7200;
};

object node {
	phases ABCN;
	name R1-12-47-3_node_42;
	voltage_B -3600-6235j;
	voltage_C -3600+6235j;
	voltage_A 7200+0.0j;
	nominal_voltage 7200;
};

object node {
	phases ABCN;
	name R1-12-47-3_node_43;
	voltage_B -3600-6235j;
	voltage_C -3600+6235j;
	voltage_A 7200+0.0j;
	nominal_voltage 7200;
};

object node {
	phases AN;
	nominal_voltage 7200;
	name R1-12-47-3_node_44;
	voltage_A 7200+0.0j;
};

object node {
	phases ABCN;
	name R1-12-47-3_node_45;
	voltage_B -3600-6235j;
	voltage_C -3600+6235j;
	voltage_A 7200+0.0j;
	nominal_voltage 7200;
};

object node {
	phases ABCN;
	name R1-12-47-3_node_46;
	voltage_B -3600-6235j;
	voltage_C -3600+6235j;
	voltage_A 7200+0.0j;
	nominal_voltage 7200;
};

object node {
	phases ABCN;
	name R1-12-47-3_node_47;
	voltage_B -3600-6235j;
	voltage_C -3600+6235j;
	voltage_A 7200+0.0j;
	nominal_voltage 7200;
};

object node {
	phases ABCN;
	name R1-12-47-3_node_48;
	voltage_B -3600-6235j;
	voltage_C -3600+6235j;
	voltage_A 7200+0.0j;
	nominal_voltage 7200;
};

object node {
	phases ABCN;
	name R1-12-47-3_node_49;
	voltage_B -3600-6235j;
	voltage_C -3600+6235j;
	voltage_A 7200+0.0j;
	nominal_voltage 7200;
};

object node {
	phases ABCN;
	name R1-12-47-3_node_50;
	voltage_B -3600-6235j;
	voltage_C -3600+6235j;
	voltage_A 7200+0.0j;
	nominal_voltage 7200;
};

object node {
	phases ABCN;
	name R1-12-47-3_node_51;
	voltage_B -3600-6235j;
	voltage_C -3600+6235j;
	voltage_A 7200+0.0j;
	nominal_voltage 7200;
};

object node {
	phases ABCN;
	name R1-12-47-3_node_52;
	parent R1-12-47-3_meter_22;
	voltage_B -3600-6235j;
	voltage_C -3600+6235j;
	voltage_A 7200+0.0j;
	nominal_voltage 7200;
};

object complex_assert {
	target voltage_A;
	parent R1-12-47-3_node_52;
	within 1;
	value +7199.99+0.00036507j;
	name R1-12-47-3_node_52complex_assert159;
};

object complex_assert {
	target voltage_B;
	parent R1-12-47-3_node_52;
	within 1;
	value -3600-6235j;
	name R1-12-47-3_node_52complex_assert160;
};

object complex_assert {
	target voltage_C;
	parent R1-12-47-3_node_52;
	within 1;
	value -3600+6234.99j;
	name R1-12-47-3_node_52complex_assert161;
};

object node {
	phases ABCN;
	name R1-12-47-3_node_53;
	bustype SWING;
	voltage_B -3600-6235j;
	voltage_C -3600+6235j;
	voltage_A 7200+0.0j;
	nominal_voltage 7200;
};

object complex_assert {
	target voltage_A;
	parent R1-12-47-3_node_53;
	within 1;
	value +7200+0j;
	name R1-12-47-3_node_53complex_assert163;
};

object complex_assert {
	target voltage_B;
	parent R1-12-47-3_node_53;
	within 1;
	value -3600-6235j;
	name R1-12-47-3_node_53complex_assert164;
};

object complex_assert {
	target voltage_C;
	parent R1-12-47-3_node_53;
	within 1;
	value -3600+6235j;
	name R1-12-47-3_node_53complex_assert165;
};

object overhead_line {
	phases ABCN;
	from R1-12-47-3_node_3;
	name R1-12-47-3_ol_1;
	to R1-12-47-3_node_4;
	length 387.401;
	configuration line_configuration_18;
};

object complex_assert {
	target power_in_A;
	parent R1-12-47-3_ol_1;
	within 1;
	value +469851+26275.5j;
	name R1-12-47-3_ol_1complex_assert167;
};

object complex_assert {
	target power_in_B;
	parent R1-12-47-3_ol_1;
	within 1;
	value +408699+25466.7j;
	name R1-12-47-3_ol_1complex_assert168;
};

object complex_assert {
	target power_in_C;
	parent R1-12-47-3_ol_1;
	within 1;
	value +500553+23106.9j;
	name R1-12-47-3_ol_1complex_assert169;
};

object complex_assert {
	target power_out_A;
	parent R1-12-47-3_ol_1;
	within 1;
	value +469698+26022.9j;
	name R1-12-47-3_ol_1complex_assert170;
};

object complex_assert {
	target power_out_B;
	parent R1-12-47-3_ol_1;
	within 1;
	value +408562+25304.6j;
	name R1-12-47-3_ol_1complex_assert171;
};

object complex_assert {
	target power_out_C;
	parent R1-12-47-3_ol_1;
	within 1;
	value +500332+22816.1j;
	name R1-12-47-3_ol_1complex_assert172;
};

object complex_assert {
	target power_losses_A;
	parent R1-12-47-3_ol_1;
	within 1;
	value +153.551+252.632j;
	name R1-12-47-3_ol_1complex_assert173;
};

object complex_assert {
	target power_losses_B;
	parent R1-12-47-3_ol_1;
	within 1;
	value +136.233+162.144j;
	name R1-12-47-3_ol_1complex_assert174;
};

object complex_assert {
	target power_losses_C;
	parent R1-12-47-3_ol_1;
	within 1;
	value +221.684+290.772j;
	name R1-12-47-3_ol_1complex_assert175;
};

object overhead_line {
	phases ACN;
	from R1-12-47-3_node_4;
	name R1-12-47-3_ol_2;
	to R1-12-47-3_node_5;
	length 68.936;
	configuration line_configuration_19;
};

object overhead_line {
	phases CN;
	from R1-12-47-3_node_4;
	name R1-12-47-3_ol_3;
	to R1-12-47-3_node_6;
	length 157.766;
	configuration line_configuration_20;
};

object overhead_line {
	phases ABCN;
	from R1-12-47-3_node_4;
	name R1-12-47-3_ol_4;
	to R1-12-47-3_node_7;
	length 139.494;
	configuration line_configuration_18;
};

object overhead_line {
	phases ABCN;
	from R1-12-47-3_node_7;
	name R1-12-47-3_ol_5;
	to R1-12-47-3_node_8;
	length 1260.546;
	configuration line_configuration_18;
};

object overhead_line {
	phases ABCN;
	from R1-12-47-3_node_8;
	name R1-12-47-3_ol_6;
	to R1-12-47-3_node_9;
	length 633.806;
	configuration line_configuration_18;
};

object overhead_line {
	phases ABCN;
	from R1-12-47-3_node_9;
	name R1-12-47-3_ol_7;
	to R1-12-47-3_node_10;
	length 237.576;
	configuration line_configuration_21;
};

object overhead_line {
	phases ACN;
	from R1-12-47-3_node_8;
	name R1-12-47-3_ol_8;
	to R1-12-47-3_node_11;
	length 749.489;
	configuration line_configuration_22;
};

object overhead_line {
	phases CN;
	from R1-12-47-3_node_11;
	name R1-12-47-3_ol_9;
	to R1-12-47-3_node_12;
	length 122.880;
	configuration line_configuration_23;
};

object overhead_line {
	phases ACN;
	from R1-12-47-3_node_11;
	name R1-12-47-3_ol_10;
	to R1-12-47-3_node_13;
	length 245.725;
	configuration line_configuration_19;
};

object overhead_line {
	phases CN;
	from R1-12-47-3_node_13;
	name R1-12-47-3_ol_11;
	to R1-12-47-3_node_14;
	length 275.331;
	configuration line_configuration_23;
};

object overhead_line {
	phases ABCN;
	from R1-12-47-3_node_8;
	name R1-12-47-3_ol_12;
	to R1-12-47-3_node_15;
	length 275.240;
	configuration line_configuration_18;
};

object overhead_line {
	phases ABCN;
	from R1-12-47-3_node_15;
	name R1-12-47-3_ol_13;
	to R1-12-47-3_node_16;
	length 63.897;
	configuration line_configuration_18;
};

object overhead_line {
	phases ABCN;
	from R1-12-47-3_node_17;
	name R1-12-47-3_ol_14;
	to R1-12-47-3_node_18;
	length 1499.769;
	configuration line_configuration_24;
};

object overhead_line {
	phases ABCN;
	from R1-12-47-3_node_18;
	name R1-12-47-3_ol_15;
	to R1-12-47-3_node_19;
	length 485.017;
	configuration line_configuration_24;
};

object complex_assert {
	target power_in_A;
	parent R1-12-47-3_ol_15;
	within 1;
	value +74071.1+3684.07j;
	name R1-12-47-3_ol_15complex_assert190;
};

object complex_assert {
	target power_in_B;
	parent R1-12-47-3_ol_15;
	within 1;
	value +39691.9+1517.46j;
	name R1-12-47-3_ol_15complex_assert191;