///////////////////////////////////////////////////////; 
// This glm created by 'Milsoft to GridLabD Export'. //; 
//             Thu Jan 22 14:39:04 2015              //; 
///////////////////////////////////////////////////////; 

clock { timestamp '2000-01-01 00:00:00'; } 

module powerflow{ solver_method FBS; } 
// Note: Number Of Looped Switches in WindMil = 0 

object node {
          name            BURLINGTON; 
          phases          ABCN; 
          bustype         PQ; 
          voltage_A       +7559.9995+0j; 
          voltage_B       -3779.9998-6547.1514j; 
          voltage_C       -3779.9998+6547.1514j; 
          nominal_voltage 7200; 
          } 

object node {name   F7579_n; phases AN; nominal_voltage 7200;  } 

object fuse {
          name          F7579; 
          from          _20781_n; 
          to            F7579_n; 
          phases        AN; 
          current_limit 0; 
          mean_replacement_time 1.0 ; 
          repair_dist_type      NONE; 
          } 

object node {name   _20781_n; phases AN; nominal_voltage 7200;  } 

object overhead_line {
          name   _20781; 
          from   _20874_n; 
          to     _20781_n; 
          phases AN; 
          length 25.000246; 
          configuration SystemCnstDefaultAN__2 ACSR 1PH_n__2 ACSR N; 
          } 

object node {name   _20874_n; phases ABCN; nominal_voltage 7200;  } 

object overhead_line {
          name   _20874; 
          from   _20741_n; 
          to     _20874_n; 
          phases ABCN; 
          length 232.86157; 
          configuration SystemCnstDefaultABCN__336 ACSR 3PH_n__336 ACSR N; 
          } 

object node {name   T62463032849_n; phases CN; nominal_voltage 120;  } 

object transformer {
          name   T62463032849; 
          from   _20665_n; 
          to     T62463032849_n; 
          phases CN; 
          configuration SINGLE_PHASE-TRAN-25-7200To120V; 
          } 

object node {name   _20665_n; phases CN; nominal_voltage 7200;  } 

object overhead_line {
          name   _20665; 
          from   _20741_n; 
          to     _20665_n; 
          phases CN; 
          length 82.454948; 
          configuration SystemCnstDefaultCN__2 ACSR 1PH_n__2 ACSR N; 
          } 

object node {name   _20741_n; phases ABCN; nominal_voltage 7200;  } 

object overhead_line {
          name   _20741; 
          from   _20531_n; 
          to     _20741_n; 
          phases ABCN; 
          length 247.04346; 
          configuration SystemCnstDefaultABCN__336 ACSR 3PH_n__336 ACSR N; 
          } 

object node {name   _20531_n; phases ABCN; nominal_voltage 7200;  } 

object overhead_line {
          name   _20531; 
          from   _20507_n; 
          to     _20531_n; 
          phases ABCN; 
          length 427.28214; 
          configuration SystemCnstDefaultABCN__336 ACSR 3PH_n__336 ACSR N; 
          } 

object node {name   _20507_n; phases ABCN; nominal_voltage 7200;  } 

object overhead_line {
          name   _20507; 
          from   _20506_n; 
          to     _20507_n; 
          phases ABCN; 
          length 168.46635; 
          configuration SystemCnstDefaultABCN__336 ACSR 3PH_n__336 ACSR N; 
          } 

object node {name   T62463028740_n; phases CN; nominal_voltage 120;  } 

object transformer {
          name   T62463028740; 
          from   _20500_n; 
          to     T62463028740_n; 
          phases CN; 
          configuration SINGLE_PHASE-TRAN-19-7200To120V; 
          } 

object node {name   T62463028430_n; phases CN; nominal_voltage 120;  } 

object transformer {
          name   T62463028430; 
          from   _20478_n; 
          to     T62463028430_n; 
          phases CN; 
          configuration SINGLE_PHASE-TRAN-19-7200To120V; 
          } 

object node {name   _20478_n; phases CN; nominal_voltage 7200;  } 

object overhead_line {
          name   _20478; 
          from   _20479_n; 
          to     _20478_n; 
          phases CN; 
          length 209.24341; 
          configuration SystemCnstDefaultCN__2 ACSR 1PH_n__2 ACSR N; 
          } 

object node {name   _20479_n; phases CN; nominal_voltage 7200;  } 

object overhead_line {
          name   _20479; 
          from   _20501_n; 
          to     _20479_n; 
          phases CN; 
          length 318.94492; 
          configuration SystemCnstDefaultCN__2 ACSR 1PH_n__2 ACSR N; 
          } 

object node {name   _20501_n; phases CN; nominal_voltage 7200;  } 

object overhead_line {
          name   _20501; 
          from   _20500_n; 
          to     _20501_n; 
          phases CN; 
          length 93.347061; 
          configuration SystemCnstDefaultCN__2 ACSR 1PH_n__2 ACSR N; 
          } 

object node {name   _20500_n; phases CN; nominal_voltage 7200;  } 

object overhead_line {
          name   _20500; 
          from   F7572_n; 
          to     _20500_n; 
          phases CN; 
          length 206.81303; 
          configuration SystemCnstDefaultCN__2 ACSR 1PH_n__2 ACSR N; 
          } 

object node {name   F7572_n; phases CN; nominal_voltage 7200;  } 

object fuse {
          name          F7572; 
          from          _20499_n; 
          to            F7572_n; 
          phases        CN; 
          current_limit 0; 
          mean_replacement_time 1.0 ; 
          repair_dist_type      NONE; 
          } 

object node {name   _20499_n; phases CN; nominal_voltage 7200;  } 

object overhead_line {
          name   _20499; 
          from   _20506_n; 
          to     _20499_n; 
          phases CN; 
          length 25.183714; 
          configuration SystemCnstDefaultCN__2 ACSR 1PH_n__2 ACSR N; 
          } 

object node {name   _20506_n; phases ABCN; nominal_voltage 7200;  } 

object overhead_line {
          name   _20506; 
          from   _20369_n; 
          to     _20506_n; 
          phases ABCN; 
          length 178.52611; 
          configuration SystemCnstDefaultABCN__336 ACSR 3PH_n__336 ACSR N; 
          } 

object node {name   _20369_n; phases ABCN; nominal_voltage 7200;  } 

object overhead_line {
          name   _20369; 
          from   _20549_n; 
          to     _20369_n; 
          phases ABCN; 
          length 302.7348; 
          configuration SystemCnstDefaultABCN__336 ACSR 3PH_n__336 ACSR N; 
          } 

object node {name   _20549_n; phases ABCN; nominal_voltage 7200;  } 

object overhead_line {
          name   _20549; 
          from   _20445_n; 
          to     _20549_n; 
          phases ABCN; 
          length 212.61182; 
          configuration SystemCnstDefaultABCN__336 ACSR 3PH_n__336 ACSR N; 
          } 

object node {name   _20445_n; phases ABCN; nominal_voltage 7200;  } 

object overhead_line {
          name   _20445; 
          from   _20881_n; 
          to     _20445_n; 
          phases ABCN; 
          length 465.78629; 
          configuration SystemCnstDefaultABCN__336 ACSR 3PH_n__336 ACSR N; 
          } 

object node {name   _20881_n; phases ABCN; nominal_voltage 7200;  } 

object overhead_line {
          name   _20881; 
          from   _20837_n; 
          to     _20881_n; 
          phases ABCN; 
          length 281.15637; 
          configuration SystemCnstDefaultABCN__336 ACSR 3PH_n__336 ACSR N; 
          } 

object node {name   _20837_n; phases ABCN; nominal_voltage 7200;  } 

object overhead_line {
          name   _20837; 
          from   _20944_n; 
          to     _20837_n; 
          phases ABCN; 
          length 87.546547; 
          configuration SystemCnstDefaultABCN__336 ACSR 3PH_n__336 ACSR N; 
          } 

object node {name   _20944_n; phases ABCN; nominal_voltage 7200;  } 

object overhead_line {
          name   _20944; 
          from   R1182_n; 
          to     _20944_n; 
          phases ABCN; 
          length 82.265869; 
          configuration SystemCnstDefaultABCN__336 ACSR 3PH_n__336 ACSR N; 
          } 

object node {name   R1182_n; phases ABCN; nominal_voltage 7200;  } 

object recloser {
          name                R1182; 
          from                _68299_n; 
          to                  R1182_n; 
          phases              ABCN; 
          max_number_of_tries 0; 
          } 

object node {name   _68299_n; phases ABCN; nominal_voltage 7200;  } 

object overhead_line {
          name   _68299; 
          from   _68298_n; 
          to     _68299_n; 
          phases ABCN; 
          length 24.356331; 
          configuration SystemCnstDefaultABCN__336 ACSR 3PH_n__336 ACSR N; 
          } 

object node {name   _68298_n; phases ABCN; nominal_voltage 7200;  } 

object overhead_line {
          name   _68298; 
          from   _21011_n; 
          to     _68298_n; 
          phases ABCN; 
          length 19.09132; 
          configuration SystemCnstDefaultABCN__336 ACSR 3PH_n__336 ACSR N; 
          } 

object node {name   _21011_n; phases ABCN; nominal_voltage 7200;  } 

object overhead_line {
          name   _21011; 
          from   _21003_n; 
          to     _21011_n; 
          phases ABCN; 
          length 13.075541; 
          configuration SystemCnstDefaultABCN__336 ACSR N; 
          } 

object node {name   _21003_n; phases ABCN; nominal_voltage 7200;  } 

object overhead_line {
          name   _21003; 
          from   BURLINGTON; 
          to     _21003_n; 
          phases ABCN; 
          length 20.623667; 
          configuration SystemCnstDefaultABCN__336 ACSR N; 
          } 

object overhead_line {
          name   _20886; 
          from   F7579_n; 
          to     _20886_n; 
          phases AN; 
          length 409.94232; 
          configuration SystemCnstDefaultAN__2 ACSR 1PH_n__2 ACSR N; 
          } 

object node {name   _20886_n; phases AN; nominal_voltage 7200;  } 

object overhead_line {
          name   _20864; 
          from   _20886_n; 
          to     _20864_n; 
          phases AN; 
          length 204.61618; 
          configuration SystemCnstDefaultAN__2 ACSR 1PH_n__2 ACSR N; 
          } 

object node {name   _20864_n; phases AN; nominal_voltage 7200;  } 

object overhead_line {
          name   _20758; 
          from   _20864_n; 
          to     _20758_n; 
          phases AN; 
          length 226.66217; 
          configuration SystemCnstDefaultAN__2 ACSR 1PH_n__2 ACSR N; 
          } 

object node {name   _20758_n; phases AN; nominal_voltage 7200;  } 

object overhead_line {
          name   _20750; 
          from   _20758_n; 
          to     _20750_n; 
          phases AN; 
          length 29.305676; 
          configuration SystemCnstDefaultAN__2 ACSR 1PH_n__2 ACSR N; 
          } 

object node {name   _20750_n; phases AN; nominal_voltage 7200;  } 

object overhead_line {
          name   _20751; 
          from   _20750_n; 
          to     _20751_n; 
          phases AN; 
          length 94.36174; 
          configuration SystemCnstDefaultAN__2 ACSR 1PH_n__2 ACSR N; 
          } 

object node {name   _20751_n; phases AN; nominal_voltage 7200;  } 

object overhead_line {
          name   _20460; 
          from   _20751_n; 
          to     _20460_n; 
          phases AN; 
          length 162.80753; 
          configuration SystemCnstDefaultAN__2 ACSR 1PH_n__2 ACSR N; 
          } 

object node {name   _20460_n; phases AN; nominal_voltage 7200;  } 

object overhead_line {
          name   _20770; 
          from   _20460_n; 
          to     _20770_n; 
          phases AN; 
          length 218.50015; 
          configuration SystemCnstDefaultAN__2 ACSR 1PH_n__2 ACSR N; 
          } 

object node {name   _20770_n; phases AN; nominal_voltage 7200;  } 

object transformer {
          name   T62474211583; 
          from   _20770_n; 
          to     T62474211583_n; 
          phases AN; 
          configuration SINGLE_PHASE-TRAN-25-7200To120V; 
          } 

object node {name   T62474211583_n; phases AN; nominal_voltage 120;  } 

object overhead_line {
          name   _20611; 
          from   _20751_n; 
          to     _20611_n; 
          phases AN; 
          length 269.0242; 
          configuration SystemCnstDefaultAN__2 ACSR 1PH_n__2 ACSR N; 
          } 

object node {name   _20611_n; phases AN; nominal_voltage 7200;  } 

object overhead_line {
          name   _20553; 
          from   _20611_n; 
          to     _20553_n; 
          phases AN; 
          length 229.97217; 
          configuration SystemCnstDefaultAN__2 ACSR 1PH_n__2 ACSR N; 
          } 

object node {name   _20553_n; phases AN; nominal_voltage 7200;  } 

object transformer {
          name   T62474209464; 
          from   _20553_n; 
          to     T62474209464_n; 
          phases AN; 
          configuration SINGLE_PHASE-TRAN-15-7200To120V; 
          } 

object node {name   T62474209464_n; phases AN; nominal_voltage 120;  } 

object transformer {
          name   T62474211356; 
          from   _20750_n; 
          to     T62474211356_n; 
          phases AN; 
          configuration SINGLE_PHASE-TRAN-15-7200To120V; 
          } 

object node {name   T62474211356_n; phases AN; nominal_voltage 120;  } 

object overhead_line {
          name   _20865; 
          from   _20864_n; 
          to     _20865_n; 
          phases AN; 
          length 57.447945; 
          configuration SystemCnstDefaultAN__2 ACSR 1PH_n__2 ACSR N; 
          } 

object node {name   _20865_n; phases AN; nominal_voltage 7200;  } 

object overhead_line {
          name   _20660; 
          from   _20865_n; 
          to     _20660_n; 
          phases AN; 
          length 236.47827; 
          configuration SystemCnstDefaultAN__2 ACSR 1PH_n__2 ACSR N; 
          } 

object node {name   _20660_n; phases AN; nominal_voltage 7200;  } 

object transformer {
          name   T62474212358; 
          from   _20660_n; 
          to     T62474212358_n; 
          phases AN; 
          configuration SINGLE_PHASE-TRAN-15-7200To120V; 
          } 

object node {name   T62474212358_n; phases AN; nominal_voltage 120;  } 

object transformer {
          name   T62474212237; 
          from   _20865_n; 
          to     T62474212237_n; 
          phases AN; 
          configuration SINGLE_PHASE-TRAN-15-7200To120V; 
          } 

object node {name   T62474212237_n; phases AN; nominal_voltage 120;  } 

object overhead_line {
          name   _20599; 
          from   _20886_n; 
          to     _20599_n; 
          phases AN; 
          length 467.06982; 
          configuration SystemCnstDefaultAN__2 ACSR 1PH_n__2 ACSR N; 
          } 

object node {name   _20599_n; phases AN; nominal_voltage 7200;  } 

object transformer {
          name   T62474210056; 
          from   _20599_n; 
          to     T62474210056_n; 
          phases AN; 
          configuration SINGLE_PHASE-TRAN-25-7200To120V; 
          } 

object node {name   T62474210056_n; phases AN; nominal_voltage 120;  } 

object overhead_line {
          name   _20887; 
          from   _20886_n; 
          to     _20887_n; 
          phases AN; 
          length 248.91708; 
          configuration SystemCnstDefaultAN__2 ACSR 1PH_n__2 ACSR N; 
          } 

object node {name   _20887_n; phases AN; nominal_voltage 7200;  } 

object overhead_line {
          name   _20400; 
          from   _20887_n; 
          to     _20400_n; 
          phases AN; 
          length 216.30673; 
          configuration SystemCnstDefaultAN__2 ACSR 1PH_n__2 ACSR N; 
          } 

object node {name   _20400_n; phases AN; nominal_voltage 7200;  } 

object transformer {
          name   T62474213347; 
          from   _20400_n; 
          to     T62474213347_n; 
          phases AN; 
          configuration SINGLE_PHASE-TRAN-15-7200To120V; 
          } 

object node {name   T62474213347_n; phases AN; nominal_voltage 120;  } 

object overhead_line {
          name   _20788; 
          from   _20874_n; 
          to     _20788_n; 
          phases ABCN; 
          length 267.90292; 
          configuration SystemCnstDefaultABCN__336 ACSR 3PH_n__336 ACSR N; 
          } 

object node {name   _20788_n; phases ABCN; nominal_voltage 7200;  } 

object overhead_line {
          name   _21039; 
          from   _20788_n; 
          to     _21039_n; 
          phases AN; 
          length 29.702805; 
          configuration SystemCnstDefaultAN__2 ACSR 1PH_n__2 ACSR N; 
          } 

object node {name   _21039_n; phases AN; nominal_voltage 7200;  } 

object fuse {
          name          F7409; 
          from          _21039_n; 
          to            F7409_n; 
          phases        AN; 
          current_limit 0; 
          mean_replacement_time 1.0 ; 
          repair_dist_type      NONE; 
          } 

object node {name   F7409_n; phases AN; nominal_voltage 7200;  } 

object overhead_line {
          name   _21038; 
          from   F7409_n; 
          to     _21038_n; 
          phases AN; 
          length 96.860489; 
          configuration SystemCnstDefaultAN__2 ACSR 1PH_n__2 ACSR N; 
          } 

object node {name   _21038_n; phases AN; nominal_voltage 7200;  } 

object transformer {
          name   T62474214099; 
          from   _21038_n; 
          to     T62474214099_n; 
          phases AN; 
          configuration SINGLE_PHASE-TRAN-19-7200To120V; 
          } 

object node {name   T62474214099_n; phases AN; nominal_voltage 120;  } 

object transformer {
          name   T62474214083; 
          from   _20788_n; 
          to     T62474214083_n; 
          phases AN; 
          configuration SINGLE_PHASE-TRAN-10-7200To120V; 
          } 

object node {name   T62474214083_n; phases AN; nominal_voltage 120;  } 

object transformer {
          name   T62463031930; 
          from   _20531_n; 
          to     T62463031930_n; 
          phases CN; 
          configuration SINGLE_PHASE-TRAN-10-7200To120V; 
          } 

object node {name   T62463031930_n; phases CN; nominal_voltage 120;  } 

object overhead_line {
          name   _20509; 
          from   _20507_n; 
          to     _20509_n; 
          phases AN; 
          length 233.40714; 
          configuration SystemCnstDefaultAN__2 ACSR 1PH_n__2 ACSR N; 
          } 

object node {name   _20509_n; phases AN; nominal_voltage 7200;  } 

object overhead_line {
          name   _20423; 
          from   _20509_n; 
          to     _20423_n; 
          phases AN; 
          length 278.05594; 
          configuration SystemCnstDefaultAN__2 ACSR 1PH_n__2 ACSR N; 
          } 

object node {name   _20423_n; phases AN; nominal_voltage 7200;  } 

object overhead_line {
          name   _20424; 
          from   _20423_n; 
          to     _20424_n; 
          phases AN; 
          length 257.59631; 
          configuration SystemCnstDefaultAN__2 ACSR 1PH_n__2 ACSR N; 
          } 

object node {name   _20424_n; phases AN; nominal_voltage 7200;  } 

object overhead_line {
          name   _20350; 
          from   _20424_n; 
          to     _20350_n; 
          phases AN; 
          length 205.67314; 
          configuration SystemCnstDefaultAN__2 ACSR 1PH_n__2 ACSR N; 
          } 

object node {name   _20350_n; phases AN; nominal_voltage 7200;  } 

object overhead_line {
          name   _20341; 
          from   _20350_n; 
          to     _20341_n; 
          phases AN; 
          length 83.317947; 
          configuration SystemCnstDefaultAN__2 ACSR 1PH_n__2 ACSR N; 
          } 

object node {name   _20341_n; phases AN; nominal_voltage 7200;  } 

object underground_line {
          name   _58262; 
          from   _20341_n; 
          to     _58262_n; 
          phases AN; 
          length 25.000002; 
          configuration SystemCnstDefaultA__1/0 URDJ1; 
          } 

object node {name   _58262_n; phases AN; nominal_voltage 7200;  } 

object fuse {
          name          F7427; 
          from          _58262_n; 
          to            F7427_n; 
          phases        AN; 
          current_limit 0; 
          mean_replacement_time 1.0 ; 
          repair_dist_type      NONE; 
          } 

object node {name   F7427_n; phases AN; nominal_voltage 7200;  } 

object underground_line {
          name   _58261; 
          from   F7427_n; 
          to     _58261_n; 
          phases AN; 
          length 100.74792; 
          configuration SystemCnstDefaultA__1/0 URDJ1; 
          } 

object node {name   _58261_n; phases AN; nominal_voltage 7200;  } 

object transformer {
          name   T62474207223; 
          from   _58261_n; 
          to     T62474207223_n; 
          phases AN; 
          configuration SINGLE_PHASE-PAD-50-7200To120V; 
          } 

object node {name   T62474207223_n; phases AN; nominal_voltage 120;  } 

object transformer {
          name   T62474208138; 
          from   _20424_n; 
          to     T62474208138_n; 
          phases AN; 
          configuration SINGLE_PHASE-TRAN-19-7200To120V; 
          } 

object node {name   T62474208138_n; phases AN; nominal_voltage 120;  } 

object transformer {
          name   T62474207085; 
          from   _20423_n; 
          to     T62474207085_n; 
          phases AN; 
          configuration SINGLE_PHASE-TRAN-19-7200To120V; 
          } 

object node {name   T62474207085_n; phases AN; nominal_voltage 120;  } 

object transformer {
          name   T62463028953; 
          from   _20509_n; 
          to     T62463028953_n; 
          phases AN; 
          configuration SINGLE_PHASE-TRAN-15-7200To120V; 
          } 

object node {name   T62463028953_n; phases AN; nominal_voltage 120;  } 

object overhead_line {
          name   _20367; 
          from   _20506_n; 
          to     _20367_n; 
          phases ABCN; 
          length 144.10289; 
          configuration SystemCnstDefaultABCN__336 ACSR 3PH_n__336 ACSR N; 
          } 

object node {name   _20367_n; phases ABCN; nominal_voltage 7200;  } 

object overhead_line {
          name   _20286; 
          from   _20367_n; 
          to     _20286_n; 
          phases ABCN; 
          length 266.65976; 
          configuration SystemCnstDefaultABCN__336 ACSR 3PH_n__336 ACSR N; 
          } 

object node {name   _20286_n; phases ABCN; nominal_voltage 7200;  } 

object overhead_line {
          name   _20287; 
          from   _20286_n; 
          to     _20287_n; 
          phases AN; 
          length 27.537382; 
          configuration SystemCnstDefaultAN__2 ACSR 1PH_n__2 ACSR N; 
          } 

object node {name   _20287_n; phases AN; nominal_voltage 7200;  } 

object fuse {
          name          F6543; 
          from          _20287_n; 
          to            F6543_n; 
          phases        AN; 
          current_limit 0; 
          mean_replacement_time 1.0 ; 
          repair_dist_type      NONE; 
          } 

object node {name   F6543_n; phases AN; nominal_voltage 7200;  } 

object overhead_line {
          name   _20288; 
          from   F6543_n; 
          to     _20288_n; 
          phases AN; 
          length 338.42255; 
          configuration SystemCnstDefaultAN__2 ACSR 1PH_n__2 ACSR N; 
          } 

object node {name   _20288_n; phases AN; nominal_voltage 7200;  } 

object transformer {
          name   T62463026955; 
          from   _20288_n; 
          to     T62463026955_n; 
          phases AN; 
          configuration SINGLE_PHASE-TRAN-15-7200To120V; 
          } 

object node {name   T62463026955_n; phases AN; nominal_voltage 120;  } 

object overhead_line {
          name   _20208; 
          from   _20286_n; 
          to     _20208_n; 
          phases ABCN; 
          length 393.55362; 
          configuration SystemCnstDefaultABCN__2 ACSR 3PH_n__2 ACSR N; 
          } 

object node {name   _20208_n; phases ABCN; nominal_voltage 7200;  } 

object overhead_line {
          name   _20171; 
          from   _20208_n; 
          to     _20171_n; 
          phases ABCN; 
          length 208.15279; 
          configuration SystemCnstDefaultABCN__2 ACSR 3PH_n__2 ACSR N; 
          } 

object node {name   _20171_n; phases ABCN; nominal_voltage 7200;  } 

object overhead_line {
          name   _20172; 
          from   _20171_n; 
          to     _20172_n; 
          phases AN; 
          length 197.81665; 
          configuration SystemCnstDefaultAN__2 ACSR 1PH_n__2 ACSR N; 
          } 

object node {name   _20172_n; phases AN; nominal_voltage 7200;  } 

object transformer {
          name   T62474205022; 
          from   _20172_n; 
          to     T62474205022_n; 
          phases AN; 
          configuration SINGLE_PHASE-TRAN-15-7200To120V; 
          } 

object node {name   T62474205022_n; phases AN; nominal_voltage 120;  } 

object underground_line {
          name   _58198; 
          from   _20171_n; 
          to     _58198_n; 
          phases ABCN; 
          length 24.999884; 
          configuration SystemCnstDefaultABC__1/0 URDJ3; 
          } 

object node {name   _58198_n; phases ABCN; nominal_voltage 7200;  } 

object fuse {
          name          F7508; 
          from          _58198_n; 
          to            F7508_n; 
          phases        ABCN; 
          current_limit 0; 
          mean_replacement_time 1.0 ; 
          repair_dist_type      NONE; 
          } 

object node {name   F7508_n; phases ABCN; nominal_voltage 7200;  } 

object underground_line {
          name   _58181; 
          from   F7508_n; 
          to     _58181_n; 
          phases ABCN; 
          length 179.16051; 
          configuration SystemCnstDefaultABC__1/0 URDJ3; 
          } 

object node {name   _58181_n; phases ABCN; nominal_voltage 7200;  } 

object underground_line {
          name   _58136; 
          from   _58181_n; 
          to     _58136_n; 
          phases ABCN; 
          length 387.42612; 
          configuration SystemCnstDefaultABC__1/0 URDJ3; 
          } 

object node {name   _58136_n; phases ABCN; nominal_voltage 7200;  } 

object underground_line {
          name   _58131; 
          from   _58136_n; 
          to     _58131_n; 
          phases ABCN; 
          length 276.4234; 
          configuration SystemCnstDefaultABC__1/0 URDJ3; 
          } 

object node {name   _58131_n; phases ABCN; nominal_voltage 7200;  } 

object underground_line {
          name   _58134; 
          from   _58131_n; 
          to     _58134_n; 
          phases ABCN; 
          length 20.61684; 
          configuration SystemCnstDefaultABC__1/0 URDJ3; 
          } 

object node {name   _58134_n; phases ABCN; nominal_voltage 7200;  } 

object underground_line {
          name   _58135; 
          from   _58134_n; 
          to     _58135_n; 
          phases ABCN; 
          length 90.043343; 
          configuration SystemCnstDefaultABC__1/0 URDJ3; 
          } 

object node {name   _58135_n; phases ABCN; nominal_voltage 7200;  } 

object underground_line {
          name   _58137; 
          from   _58135_n; 
          to     _58137_n; 
          phases CN; 
          length 24.999796; 
          configuration SystemCnstDefaultC__1/0 URDJ1; 
          } 

object node {name   _58137_n; phases CN; nominal_voltage 7200;  } 

object underground_line {
          name   _58143; 
          from   _58137_n; 
          to     _58143_n; 
          phases CN; 
          length 143.1158; 
          configuration SystemCnstDefaultC__1/0 URDJ1; 
          } 

object node {name   _58143_n; phases CN; nominal_voltage 7200;  } 

object underground_line {
          name   _58172; 
          from   _58143_n; 
          to     _58172_n; 
          phases CN; 
          length 204.81128; 
          configuration SystemCnstDefaultC__1/0 URDJ1; 
          } 

object node {name   _58172_n; phases CN; nominal_voltage 7200;  } 

object transformer {
          name   T62474204354; 
          from   _58172_n; 
          to     T62474204354_n; 
          phases CN; 
          configuration SINGLE_PHASE-PAD-75-7200To120V; 
          } 

object node {name   T62474204354_n; phases CN; nominal_voltage 120;  } 

object transformer {
          name   T62474203356; 
          from   _58143_n; 
          to     T62474203356_n; 
          phases CN; 
          configuration SINGLE_PHASE-PAD-50-7200To120V; 
          } 

object node {name   T62474203356_n; phases CN; nominal_voltage 120;  } 

object underground_line {
          name   _58138; 
          from   _58135_n; 
          to     _58138_n; 
          phases ABCN; 
          length 25.000244; 
          configuration SystemCnstDefaultABC__1/0 URDJ3; 
          } 

object node {name   _58138_n; phases ABCN; nominal_voltage 7200;  } 

object underground_line {
          name   _58139; 
          from   _58138_n; 
          to     _58139_n; 
          phases ABCN; 
          length 75.008034; 
          configuration SystemCnstDefaultABC__1/0 URDJ3; 
          } 

object node {name   _58139_n; phases ABCN; nominal_voltage 7200;  } 

object underground_line {
          name   _58140; 
          from   _58139_n; 
          to     _58140_n; 
          phases ABCN; 
          length 200.30598; 
          configuration SystemCnstDefaultABC__1/0 URDJ3; 
          } 

object node {name   _58140_n; phases ABCN; nominal_voltage 7200;  } 

object underground_line {
          name   _58141; 
          from   _58140_n; 
          to     _58141_n; 
          phases ABCN; 
          length 100.91383; 