clock {
	timezone PST+8PDT;
	starttime '2000-01-01 00:00:00';
	stoptime '2000-01-01 00:00:00';
};

#set minimum_timestep=60;
#set profiler=1;
#set relax_naming_rules=1;
module generators;
module tape;
module residential {
	implicit_enduses NONE;
};

module powerflow {
	solver_method NR;
	NR_iteration_limit 50;
};

object node {
	phases ABCN;
	name BURLINGTON;
	bustype SWING;
	longitude 249.241975273;
	nominal_voltage 7200.0;
	latitude 1186.14884667;
};

object overhead_line {
	phases ACB;
	from BURLINGTON;
	name 21003;
	longitude 248.438630691;
	to node2101121003;
	length 20.6237;
	latitude 1187.62190279;
	configuration 70559-LINECONFIG;
};

object overhead_line {
	phases ACB;
	from node2101121003;
	name 21011;
	longitude 247.95586711;
	to node6829821011;
	length 13.0755;
	latitude 1188.56931748;
	configuration 70559-LINECONFIG;
};

object overhead_line {
	phases ACB;
	from node6829821011;
	name 68298;
	longitude 249.295834578;
	to node6829968298;
	length 19.0913;
	latitude 1187.75506724;
	configuration 70559-LINECONFIG;
};

object overhead_line {
	phases ACB;
	from node6829968298;
	name 68299;
	to nodeR118268299;
	longitude 251.005334611;
	length 24.3563;
	latitude 1186.71625905;
	configuration 70559-LINECONFIG;
};

object fuse {
	phases ACB;
	from nodeR118268299;
	name R1182;
	current_limit 9999.0 A;
	longitude 251.005334611;
	to node20944R1182;
	latitude 1186.71625905;
};

object overhead_line {
	phases ACB;
	from node20944R1182;
	name 20944;
	longitude 256.779314944;
	to node2083720944;
	length 82.2659;
	latitude 1183.20754522;
	configuration 70559-LINECONFIG;
};

object overhead_line {
	phases ACB;
	from node2083720944;
	name 20837;
	longitude 258.004151788;
	to node2088120837;
	length 87.5465;
	latitude 1176.21796983;
	configuration 70559-LINECONFIG;
};

object overhead_line {
	phases ACB;
	from node2088120837;
	name 20881;
	longitude 259.830364604;
	to node2044520881;
	length 281.156;
	latitude 1153.9880826;
	configuration 70559-LINECONFIG;
};

object overhead_line {
	phases ACB;
	from node2044520881;
	name 20445;
	longitude 262.881404192;
	to node2054920445;
	length 465.786;
	latitude 1116.84969696;
	configuration 70559-LINECONFIG;
};

object overhead_line {
	phases ACB;
	from node2054920445;
	name 20549;
	longitude 250.480527622;
	to node2036920549;
	length 212.612;
	latitude 1104.66049823;
	configuration 70559-LINECONFIG;
};

object overhead_line {
	phases ACB;
	from node2036920549;
	name 20369;
	longitude 227.795214826;
	to node2050620369;
	length 302.735;
	latitude 1094.36911029;
	configuration 70559-LINECONFIG;
};

object overhead_line {
	phases ACB;
	from node2050620369;
	name 20506;
	to node2049920506;
	longitude 214.715738236;
	length 178.526;
	latitude 1087.70338272;
	configuration 70559-LINECONFIG;
};

object overhead_line {
	phases C;
	from node2049920506;
	name 20499;
	longitude 216.79145029;
	to nodeF757220499;
	length 25.1837;
	latitude 1087.58799361;
	configuration 19237-LINECONFIG;
};

object fuse {
	phases C;
	from nodeF757220499;
	name F7572;
	current_limit 9999.0 A;
	longitude 216.79145029;
	to node20500F7572;
	latitude 1087.58799361;
};

object overhead_line {
	phases C;
	from node20500F7572;
	name 20500;
	longitude 233.837564539;
	to node2050120500;
	length 206.813;
	latitude 1086.64013895;
	configuration 19237-LINECONFIG;
};

object overhead_line {
	phases C;
	from node2050120500;
	name 20501;
	longitude 241.159139479;
	to node2047920501;
	length 93.3471;
	latitude 1088.99954558;
	configuration 19237-LINECONFIG;
};

object overhead_line {
	phases C;
	from node2047920501;
	name 20479;
	longitude 266.364250377;
	to node2047820479;
	length 318.945;
	latitude 1081.52640601;
	configuration 19237-LINECONFIG;
};

object overhead_line {
	phases C;
	from node2047820479;
	name 20478;
	longitude 283.236421603;
	to nodeT6246302843020478;
	length 209.243;
	latitude 1085.16172296;
	configuration 19237-LINECONFIG;
};

object overhead_line {
	phases ACB;
	from node2049920506;
	name 20507;
	longitude 210.587971111;
	to node2053120507;
	length 168.466;
	latitude 1100.73592982;
	configuration 70559-LINECONFIG;
};

object overhead_line {
	phases ACB;
	from node2053120507;
	name 20531;
	longitude 201.661722505;
	to node2074120531;
	length 427.282;
	latitude 1134.22352728;
	configuration 70559-LINECONFIG;
};

object overhead_line {
	phases ACB;
	from node2074120531;
	name 20741;
	longitude 196.011872021;
	to node2066520741;
	length 247.043;
	latitude 1153.45330363;
	configuration 70559-LINECONFIG;
};

object overhead_line {
	phases C;
	from node2066520741;
	name 20665;
	longitude 202.09512135;
	to nodeT6246303284920665;
	length 82.4549;
	latitude 1150.45590725;
	configuration 19237-LINECONFIG;
};

object overhead_line {
	phases ACB;
	from node2066520741;
	name 20874;
	longitude 190.795415338;
	to node2078120874;
	length 232.862;
	latitude 1171.60967535;
	configuration 70559-LINECONFIG;
};

object overhead_line {
	phases A;
	from node2078120874;
	name 20781;
	longitude 188.981612981;
	to nodeF757920781;
	length 25.0002;
	latitude 1170.6433234;
	configuration 18790-LINECONFIG;
};

object fuse {
	phases A;
	from nodeF757920781;
	name F7579;
	current_limit 9999.0 A;
	longitude 188.981612981;
	to node20886F7579;
	latitude 1170.6433234;
};

object overhead_line {
	phases A;
	from node20886F7579;
	name 20886;
	longitude 159.243936108;
	to node2086420886;
	length 409.942;
	latitude 1154.78997158;
	configuration 18790-LINECONFIG;
};

object overhead_line {
	phases A;
	from node2086420886;
	name 20864;
	longitude 144.518180812;
	to node2075820864;
	length 204.616;
	latitude 1146.66866657;
	configuration 18790-LINECONFIG;
};

object overhead_line {
	phases A;
	from node2075820864;
	name 20758;
	longitude 128.027811532;
	to node2075020758;
	length 226.662;
	latitude 1137.99048576;
	configuration 18790-LINECONFIG;
};

object overhead_line {
	phases A;
	from node2075020758;
	name 20750;
	to node2075120750;
	longitude 125.896849477;
	length 29.3057;
	latitude 1136.86642012;
	configuration 18790-LINECONFIG;
};

object overhead_line {
	phases A;
	from node2075120750;
	name 20751;
	longitude 123.523412231;
	to node2046020751;
	length 94.3617;
	latitude 1144.14723958;
	configuration 18790-LINECONFIG;
};

object overhead_line {
	phases A;
	from node2046020751;
	name 20460;
	longitude 111.805761248;
	to node2077020460;
	length 162.808;
	latitude 1150.60780134;
	configuration 18790-LINECONFIG;
};

object overhead_line {
	phases A;
	from node2077020460;
	name 20770;
	longitude 96.4298547795;
	to nodeT6247421158320770;
	length 218.5;
	latitude 1141.35237359;
	configuration 18790-LINECONFIG;
};

object overhead_line {
	phases A;
	from node2046020751;
	name 20611;
	longitude 117.7806319;
	to node2055320611;
	length 269.024;
	latitude 1123.09471938;
	configuration 18790-LINECONFIG;
};

object overhead_line {
	phases A;
	from node2055320611;
	name 20553;
	to nodeT6247420946420553;
	longitude 112.863457389;
	length 229.972;
	latitude 1105.10033343;
	configuration 18790-LINECONFIG;
};

object overhead_line {
	phases A;
	from node2075820864;
	name 20865;
	longitude 140.988937728;
	to node2066020865;
	length 57.4479;
	latitude 1149.7774816;
	configuration 18790-LINECONFIG;
};

object overhead_line {
	phases A;
	from node2066020865;
	name 20660;
	longitude 121.634930411;
	to nodeT6247421235820660;
	length 236.478;
	latitude 1152.28878231;
	configuration 18790-LINECONFIG;
};

object overhead_line {
	phases A;
	from node2086420886;
	name 20599;
	longitude 175.527902671;
	to nodeT6247421005620599;
	length 467.07;
	latitude 1120.49225257;
	configuration 18790-LINECONFIG;
};

object overhead_line {
	phases A;
	from node2086420886;
	name 20887;
	longitude 141.355280754;
	to node2040020887;
	length 248.917;
	latitude 1164.71369871;
	configuration 18790-LINECONFIG;
};

object overhead_line {
	phases A;
	from node2040020887;
	name 20400;
	to nodeT6247421334720400;
	longitude 123.827788594;
	length 216.307;
	latitude 1168.06548003;
	configuration 18790-LINECONFIG;
};

object overhead_line {
	phases A;
	from node2078120874;
	name 20788;
	longitude 179.454416691;
	to node2103920788;
	length 267.903;
	latitude 1190.24203128;
	configuration 70559-LINECONFIG;
};

object overhead_line {
	phases A;
	from node2103920788;
	name 21039;
	longitude 177.026540678;
	to nodeF740921039;
	length 29.7028;
	latitude 1190.57952098;
	configuration 18790-LINECONFIG;
};

object fuse {
	phases A;
	from nodeF740921039;
	name F7409;
	current_limit 9999.0 A;
	longitude 177.026540678;
	to node21038F7409;
	latitude 1190.57952098;
};

object overhead_line {
	phases A;
	from node21038F7409;
	name 21038;
	longitude 169.109248296;
	to nodeT6247421409921038;
	length 96.8605;
	latitude 1191.67998172;
	configuration 18790-LINECONFIG;
};

object overhead_line {
	phases A;
	from node2053120507;
	name 20509;
	longitude 196.027356127;
	to node2042320509;
	length 233.407;
	latitude 1088.35146415;
	configuration 18790-LINECONFIG;
};

object overhead_line {
	phases A;
	from node2042320509;
	name 20423;
	longitude 175.925223998;
	to node2042420423;
	length 278.056;
	latitude 1077.47588225;
	configuration 18790-LINECONFIG;
};

object overhead_line {
	phases A;
	from node2042420423;
	name 20424;
	longitude 155.807582559;
	to node2035020424;
	length 257.596;
	latitude 1084.24021241;
	configuration 18790-LINECONFIG;
};

object overhead_line {
	phases A;
	from node2035020424;
	name 20350;
	to node2034120350;
	longitude 163.010494701;
	length 205.673;
	latitude 1069.15210121;
	configuration 18790-LINECONFIG;
};

object overhead_line {
	phases A;
	from node2034120350;
	name 20341;
	longitude 156.359659311;
	to node5826220341;
	length 83.3179;
	latitude 1067.43060032;
	configuration 18790-LINECONFIG;
};

object underground_line {
	phases A;
	from node5826220341;
	name 58262;
	longitude 154.37379843;
	to nodeF742758262;
	length 25;
	latitude 1066.8790349;
	configuration 58261-LINECONFIG;
};

object fuse {
	phases A;
	from nodeF742758262;
	name F7427;
	current_limit 9999.0 A;
	longitude 154.37379843;
	to node58261F7427;
	latitude 1066.8790349;
};

object line_configuration {
	name 58261-LINECONFIG;
	spacing 58261-LINESPACING;
	conductor_A 58261-LINECONFIGunderground_line_conductor8003;
};

object line_spacing {
	distance_AN 0.0;
	name 58261-LINESPACING;
	distance_CN 0.0;
	distance_BC 0.0;
	distance_AB 0.0;
	distance_AC 0.0;
	distance_BN 0.0;
};

object underground_line_conductor {
	conductor_gmr 0.01177;
	conductor_resistance 1.1088;
	shield_resistance 0.000000;
	neutral_gmr 0.0317574;
	neutral_strands 19;
	conductor_diameter 0.373000;
	name 58261-LINECONFIGunderground_line_conductor8003;
	insulation_relative_permitivitty 2.4;
	outer_diameter 0.983000;
	neutral_resistance 1.11408;
	neutral_diameter 0.128000;
	shield_gmr 0.000000;
};

object underground_line {
	phases A;
	from node58261F7427;
	name 58261;
	longitude 146.75745101;
	to nodeT6247420722358261;
	length 100.748;
	latitude 1067.33944905;
	configuration 58261-LINECONFIG;
};

object overhead_line {
	phases ACB;
	from node2049920506;
	name 20367;
	longitude 217.769418141;
	to node2028620367;
	length 144.103;
	latitude 1076.42072273;
	configuration 70559-LINECONFIG;
};

object overhead_line {
	phases ACB;
	from node2028620367;
	name 20286;
	to node2028720286;
	longitude 223.420160483;
	length 266.66;
	latitude 1055.54235659;
	configuration 70559-LINECONFIG;
};

object overhead_line {
	phases A;
	from node2028720286;
	name 20287;
	longitude 221.147337184;
	to nodeF654320287;
	length 27.5374;
	latitude 1055.59038218;
	configuration 18790-LINECONFIG;
};

object fuse {
	phases A;
	from nodeF654320287;
	name F6543;
	current_limit 9999.0 A;
	longitude 221.147337184;
	to node20288F6543;
	latitude 1055.59038218;
};

object overhead_line {
	phases A;
	from node20288F6543;
	name 20288;
	longitude 193.215320034;
	to nodeT6246302695520288;
	length 338.423;
	latitude 1056.18031175;
	configuration 18790-LINECONFIG;
};

object overhead_line {
	phases ACB;
	from node2028720286;
	name 20208;
	longitude 200.557563958;
	to node2017120208;
	length 393.554;
	latitude 1032.88990513;
	configuration 15051-LINECONFIG;
};

object overhead_line {
	phases ACB;
	from node2017120208;
	name 20171;
	to node2017220171;
	longitude 188.654169179;
	length 208.153;
	latitude 1020.72823228;
	configuration 15051-LINECONFIG;
};

object overhead_line {
	phases A;
	from node2017220171;
	name 20172;
	longitude 181.219015559;
	to nodeT6247420502220172;
	length 197.817;
	latitude 1034.99616978;
	configuration 18790-LINECONFIG;
};

object underground_line {
	phases ACB;
	from node2017220171;
	name 58198;
	longitude 189.689261444;
	to nodeF750858198;
	length 24.9999;
	latitude 1018.97611521;
	configuration 58136-LINECONFIG;
};

object fuse {
	phases ACB;
	from nodeF750858198;
	name F7508;
	current_limit 9999.0 A;
	longitude 189.689261444;
	to node58181F7508;
	latitude 1018.97611521;
};

object underground_line {
	phases ACB;
	from node58181F7508;
	name 58181;
	longitude 180.553440743;
	to node5813658181;
	length 179.161;
	latitude 1010.63235852;
	configuration 58136-LINECONFIG;
};

object line_configuration {
	name 58136-LINECONFIG;
	spacing 57731-LINESPACING;
	conductor_A 58261-LINECONFIGunderground_line_conductor8003;
	conductor_C 58261-LINECONFIGunderground_line_conductor8003;
	conductor_B 58261-LINECONFIGunderground_line_conductor8003;
};

object underground_line {
	phases ACB;
	from node5813658181;
	name 58136;
	to node5813158136;
	longitude 157.577346154;
	length 387.426;
	latitude 993.245529145;
	configuration 58136-LINECONFIG;
};

object underground_line {
	phases ACB;
	from node5813158136;
	name 58131;
	longitude 134.885014363;
	to node5813458131;
	length 276.423;
	latitude 992.951867248;
	configuration 58136-LINECONFIG;
};

object underground_line {
	phases ACB;
	from node5813458131;
	name 58134;
	longitude 133.187501544;
	to node5813558134;
	length 20.6168;
	latitude 993.073382516;
	configuration 58136-LINECONFIG;
};

object underground_line {
	phases ACB;
	from node5813558134;
	name 58135;
	longitude 125.767852191;
	to node5813758135;
	length 90.0433;
	latitude 993.518958265;
	configuration 58136-LINECONFIG;
};

object underground_line {
	phases C;
	from node5813758135;
	name 58137;
	longitude 125.623295211;
	to node5814358137;
	length 24.9998;
	latitude 995.539218861;
	configuration 57821-LINECONFIG;
};

object underground_line {
	phases C;
	from node5814358137;
	name 58143;
	longitude 125.834933197;
	to node5817258143;
	length 143.116;
	latitude 1007.10841575;
	configuration 57821-LINECONFIG;
};

object underground_line {
	phases C;
	from node5817258143;
	name 58172;
	longitude 128.507622391;
	to nodeT6247420435458172;
	length 204.811;
	latitude 1023.17880995;
	configuration 57821-LINECONFIG;
};

object underground_line {
	phases ACB;
	from node5813758135;
	name 58138;
	longitude 123.70798704;
	to node5813958138;
	length 25.0002;
	latitude 993.645492195;
	configuration 58136-LINECONFIG;
};

object underground_line {
	phases ACB;
	from node5813958138;
	name 58139;
	longitude 117.527802045;
	to node5814058139;
	length 75.008;
	latitude 994.025252116;
	configuration 58136-LINECONFIG;
};

object underground_line {
	phases ACB;
	from node5814058139;
	name 58140;
	longitude 101.027143616;
	to node5814158140;
	length 200.306;
	latitude 995.088495887;
	configuration 58136-LINECONFIG;
};

object underground_line {
	phases ACB;
	from node5814158140;
	name 58141;
	longitude 92.7148578188;
	to node5814458141;
	length 100.914;
	latitude 995.635349185;
	configuration 58136-LINECONFIG;
};

object underground_line {
	phases A;
	from node5814458141;
	name 58144;
	longitude 92.7819438607;
	to node5817758144;
	length 167.617;
	latitude 1009.18430158;
	configuration 58261-LINECONFIG;
};

object underground_line {
	phases A;
	from node5817758144;
	name 58177;
	longitude 93.8861175233;
	to node5792158177;
	length 212.671;
	latitude 1026.37869225;
	configuration 58261-LINECONFIG;
};

object underground_line {
	phases A;
	from node5792158177;
	name 57921;
	to node5823357921;
	longitude 94.7322915696;
	length 270.722;
	latitude 1048.24129941;
	configuration 58261-LINECONFIG;
};

object underground_line {
	phases A;
	from node5823357921;
	name 58233;
	longitude 78.5102261702;
	to node5824058233;
	length 199.88;
	latitude 1050.61088173;
	configuration 58261-LINECONFIG;
};

object underground_line {
	phases A;
	from node5824058233;
	name 58240;
	longitude 82.5606080258;
	to node5826058240;
	length 190.022;
	latitude 1065.10155768;
	configuration 58261-LINECONFIG;
};

object underground_line {
	phases A;
	from node5826058240;
	name 58260;
	longitude 107.610892957;
	to nodeT6247420743758260;
	length 319.945;
	latitude 1068.17997907;
	configuration 58261-LINECONFIG;
};

object underground_line {
	phases A;
	from node5824058233;
	name 58241;
	longitude 61.9837289884;
	to node5824358241;
	length 200.19;
	latitude 1050.68173104;
	configuration 58261-LINECONFIG;
};

object underground_line {
	phases A;
	from node5824358241;
	name 58243;
	longitude 45.560475982;
	to node5824258243;
	length 198.968;
	latitude 1050.90452386;
	configuration 58261-LINECONFIG;
};

object underground_line {
	phases A;
	from node5824258243;
	name 58242;
	longitude 52.5209078888;
	to nodeT6247420783058242;
	length 297.293;
	latitude 1067.89640885;
	configuration 58261-LINECONFIG;
};

object underground_line {
	phases A;
	from node5824258243;
	name 57997;
	longitude 24.529579491;
	to node5791157997;
	length 269.856;
	latitude 1053.69937503;
	configuration 58261-LINECONFIG;
};

object underground_line {
	phases A;
	from node5791157997;
	name 57911;
	longitude 25.6492423036;
	to node5826357911;
	length 183.026;
	latitude 1068.04833753;
	configuration 58261-LINECONFIG;
};

object underground_line {
	phases A;
	from node5826357911;
	name 58263;
	longitude 29.5654571031;
	to nodeT6247420890458263;
	length 186.848;
	latitude 1080.58462809;
	configuration 58261-LINECONFIG;
};

object underground_line {
	phases ACB;
	from node5814458141;
	name 58145;
	longitude 84.4955169763;
	to node5814658145;
	length 99.7906;
	latitude 996.182167891;
	configuration 58136-LINECONFIG;
};

object underground_line {
	phases ACB;
	from node5814658145;
	name 58146;
	to node5815058146;
	longitude 68.0463899407;
	length 199.716;
	latitude 997.285931576;
	configuration 58136-LINECONFIG;
};

object underground_line {
	phases ACB;
	from node5815058146;
	name 58150;
	longitude 55.1213765393;
	to nodeT6247420376958150;
	length 239.853;
	latitude 1008.56656437;
	configuration 58136-LINECONFIG;
};

object underground_line {
	phases CB;
	from nodeT6247420376958150;
	name 58176;
	longitude 54.0120683824;
	to node5797758176;
	length 170.776;
	latitude 1022.18643526;
	configuration 57981-LINECONFIG;
};

object underground_line {
	phases CB;
	from node5797758176;
	name 57977;
	to node5798157977;
	longitude 37.6093684851;
	length 199.991;
	latitude 1024.02938224;
	configuration 57981-LINECONFIG;
};

object line_configuration {
	name 57981-LINECONFIG;
	spacing 57981-LINESPACING;
	conductor_C 58261-LINECONFIGunderground_line_conductor8003;
	conductor_B 58261-LINECONFIGunderground_line_conductor8003;
};

object line_spacing {
	distance_AN 0.0;
	name 57981-LINESPACING;
	distance_CN 0.0;
	distance_BC 4.472136;
	distance_AB 0.0;
	distance_AC 0.0;
	distance_BN 0.0;
};

object underground_line {
	phases CB;
	from node5798157977;
	name 57981;
	longitude 21.2067391229;
	to node5791957981;
	length 199.985;
	latitude 1025.87236381;
	configuration 57981-LINECONFIG;
};

object underground_line {
	phases B;
	from node5791957981;
	name 58183;
	longitude 24.2561260003;
	to node5814258183;
	length 186.29;
	latitude 1011.70572362;
	configuration 58119-LINECONFIG;
};

object underground_line {
	phases B;
	from node5814258183;
	name 58142;
	longitude 21.939384873;
	to nodeT6247420298958142;
	length 207.458;
	latitude 995.453041691;
	configuration 58119-LINECONFIG;
};

object underground_line {
	phases B;
	from node5813658181;
	name 58149;
	longitude 185.888540065;
	to node5811958149;
	length 179.452;
	latitude 997.184634262;
	configuration 58119-LINECONFIG;
};

object line_configuration {
	name 58119-LINECONFIG;
	spacing 58261-LINESPACING;
	conductor_B 58261-LINECONFIGunderground_line_conductor8003;
};

object underground_line {
	phases B;
	from node5811958149;
	name 58119;
	longitude 188.13816491;
	to nodeT6246302293858119;
	length 131.437;
	latitude 986.916608932;
	configuration 58119-LINECONFIG;
};

object overhead_line {
	phases ACB;
	from node2028720286;
	name 20248;
	longitude 226.897791552;
	to node2014520248;
	length 153.517;
	latitude 1043.58324872;
	configuration 70559-LINECONFIG;
};

object overhead_line {
	phases ACB;
	from node2014520248;
	name 20145;
	longitude 235.106833166;
	to node2005020145;
	length 357.003;
	latitude 1015.80689851;
	configuration 70559-LINECONFIG;
};

object overhead_line {
	phases ACB;
	from node2005020145;
	name 20050;
	longitude 241.406839867;
	to node1966320050;
	length 287.2;
	latitude 993.377170686;
	configuration 70559-LINECONFIG;
};

object overhead_line {
	phases ACB;
	from node1966320050;
	name 19663;
	longitude 246.189847313;
	to node1965819663;
	length 211.226;
	latitude 976.921978131;
	configuration 70559-LINECONFIG;
};

object overhead_line {
	phases C;
	from node1965819663;
	name 19658;
	to nodeF758019658;
	longitude 248.244295805;
	length 25;
	latitude 976.728590065;
	configuration 19237-LINECONFIG;
};

object fuse {
	phases C;
	from nodeF758019658;
	name F7580;
	current_limit 9999.0 A;
	longitude 248.244295805;
	to node19652F7580;
	latitude 976.728590065;
};

object overhead_line {
	phases C;
	from node19652F7580;
	name 19652;
	longitude 267.060783342;
	to nodeT6246302155019652;
	length 228.973;
	latitude 974.957481296;
	configuration 19237-LINECONFIG;
};

object overhead_line {
	phases ACB;
	from node1965819663;
	name 19935;
	longitude 250.792275688;
	to node1959719935;
	length 194.654;
	latitude 961.813564972;
	configuration 70559-LINECONFIG;
};

object overhead_line {
	phases ACB;
	from node1959719935;
	name 19597;
	to node1959619597;
	longitude 255.792020354;
	length 222.044;
	latitude 944.50776554;
	configuration 70559-LINECONFIG;
};

object line_configuration {
	name 19596-LINECONFIG;
	spacing 18790-LINESPACING;
	conductor_B 16074_conductor_C;
};

object overhead_line {
	phases B;
	from node1959619597;
	name 19596;
	longitude 253.894428461;
	to nodeF758119596;
	length 25.0001;
	latitude 945.304225537;
	configuration 19596-LINECONFIG;
};

object fuse {
	phases B;
	from nodeF758119596;
	name F7581;
	current_limit 9999.0 A;
	longitude 253.894428461;
	to node19599F7581;
	latitude 945.304225537;
};

object overhead_line {
	phases B;
	from node19599F7581;
	name 19599;
	longitude 217.961173183;
	to node1991519599;
	length 473.406;
	latitude 960.385760572;
	configuration 19596-LINECONFIG;
};

object overhead_line {
	phases B;
	from node1991519599;
	name 19915;
	longitude 211.723133145;
	to node1957419915;
	length 82.1566;
	latitude 957.773182308;
	configuration 16194-LINECONFIG;
};

object overhead_line {
	phases B;
	from node1957419915;
	name 19574;
	longitude 200.124149997;
	to nodeT6246301896119574;
	length 406.315;
	latitude 926.888086257;
	configuration 16194-LINECONFIG;
};

object overhead_line {
	phases B;
	from node1991519599;
	name 19930;
	longitude 204.489232632;
	to nodeT6246302086819930;
	length 163.187;
	latitude 960.385760572;
	configuration 16194-LINECONFIG;
};

object overhead_line {
	phases ACB;
	from node1959619597;
	name 19852;
	longitude 276.43593505;
	to node1981519852;
	length 273.49;
	latitude 935.53590307;
	configuration 70559-LINECONFIG;
};

object overhead_line {
	phases ACB;
	from node1981519852;
	name 19815;
	to node1976519815;
	longitude 301.377926962;
	length 335.444;
	latitude 923.728669519;
	configuration 70559-LINECONFIG;
};

object overhead_line {
	phases ACB;
	from node1976519815;
	name 19765;
	longitude 331.242162363;
	to node1976419765;
	length 386.822;
	latitude 912.630275033;
	configuration 70559-LINECONFIG;
};

object overhead_line {
	phases C;
	from node1976419765;
	name 19764;
	longitude 331.332411591;
	to nodeF758419764;
	length 25.0001;
	latitude 914.653601135;
	configuration 19237-LINECONFIG;
};

object fuse {
	phases C;
	from nodeF758419764;
	name F7584;
	current_limit 9999.0 A;
	longitude 331.332411591;
	to node19776F7584;
	latitude 914.653601135;
};

object overhead_line {
	phases C;
	from node19776F7584;
	name 19776;
	longitude 332.547553865;
	to nodeT6246301915019776;
	length 336.596;
	latitude 941.895187276;
	configuration 19237-LINECONFIG;
};

object overhead_line {
	phases ACB;
	from node1976419765;
	name 19748;
	to node1973119748;
	longitude 341.675070684;
	length 137.975;
	latitude 908.144321561;
	configuration 70559-LINECONFIG;
};

object overhead_line {
	phases ACB;
	from node1973119748;
	name 19731;
	longitude 354.06868137;
	to node1958919731;
	length 155.789;
	latitude 904.772272871;
	configuration 70559-LINECONFIG;
};

object overhead_line {
	phases ACB;
	from node1958919731;
	name 19589;
	longitude 367.313560285;
	to node1953819589;
	length 172.639;
	latitude 899.607888801;
	configuration 70559-LINECONFIG;
};

object overhead_line {
	phases ACB;
	from node1953819589;
	name 19538;
	longitude 407.999822235;
	to node1918619538;
	length 561.815;
	latitude 877.758068044;
	configuration 70559-LINECONFIG;
};

object overhead_line {
	phases ACB;
	from node1918619538;
	name 19186;
	longitude 419.906290654;
	to node1950119186;
	length 169.689;
	latitude 870.515108364;
	configuration 70559-LINECONFIG;
};

object overhead_line {
	phases ACB;
	from node1950119186;
	name 19501;
	longitude 442.201336394;
	to node1950319501;
	length 293.041;
	latitude 861.300220299;
	configuration 70559-LINECONFIG;
};

object overhead_line {
	phases C;
	from node1950319501;
	name 19503;
	longitude 443.498872461;
	to nodeF504719503;
	length 27.5663;
	latitude 863.13482598;
	configuration 19237-LINECONFIG;
};

object fuse {
	phases C;
	from nodeF504719503;
	name F5047;
	current_limit 9999.0 A;
	longitude 443.498872461;
	to node19502F5047;
	latitude 863.13482598;
};

object overhead_line {
	phases C;
	from node19502F5047;
	name 19502;
	to nodeT6246307535719502;
	longitude 454.068608307;
	length 224.554;
	latitude 878.079453569;
	configuration 19237-LINECONFIG;
};

object overhead_line {
	phases ACB;
	from node1950319501;
	name 19345;
	longitude 474.26876951;
	to node1856919345;
	length 421.542;
	latitude 848.034803531;
	configuration 70559-LINECONFIG;
};

object overhead_line {
	phases A;
	from node1856919345;
	name 18569;
	longitude 473.53283849;
	to nodeF758818569;
	length 25.0003;
	latitude 846.142649273;
	configuration 18790-LINECONFIG;
};

object fuse {
	phases A;
	from nodeF758818569;
	name F7588;
	current_limit 9999.0 A;
	longitude 473.53283849;
	to node19396F7588;
	latitude 846.142649273;
};

object overhead_line {
	phases A;
	from node19396F7588;
	name 19396;
	longitude 465.796588741;
	to nodeT6246307233019396;
	length 262.794;
	latitude 826.253171958;
	configuration 18790-LINECONFIG;
};

object overhead_line {
	phases ACB;
	from node1856919345;
	name 19384;
	longitude 512.708475219;
	to node7092419384;
	length 546.446;
	latitude 824.865892414;
	configuration 70559-LINECONFIG;
};

object overhead_line {
	phases ACB;
	from node7092419384;
	name 70924;
	longitude 522.433175783;
	to node7092570924;
	length 131.068;
	latitude 820.210220024;
	configuration 70559-LINECONFIG;
};

object overhead_line {
	phases ACB;
	from node7092570924;
	name 70925;
	longitude 538.942949319;
	to nodeSW1250-Bx170925;
	length 222.516;
	latitude 812.306219473;
	configuration 70559-LINECONFIG;
};

object switch {
	status CLOSED;
	phases ACB;
	from nodeSW1250-Bx170925;
	name SW1250-Bx1;
	longitude 538.942949319;
	to nodeSW1250-Ax1SW1250-Bx1;
	latitude 812.306219473;
};

object switch {
	status CLOSED;
	phases ACB;
	from nodeSW1250-Ax1SW1250-Bx1;
	name SW1250-Ax1;
	longitude 538.942949319;
	to node19281SW1250-Ax1;
	latitude 812.306219473;
};

object overhead_line {
	phases ACB;
	from node19281SW1250-Ax1;
	name 19281;
	longitude 540.797862923;
	to node1908919281;
	length 25.0002;
	latitude 811.418202744;
	configuration 70559-LINECONFIG;
};

object overhead_line {
	phases ACB;
	from node1908919281;
	name 19089;
	longitude 557.097298477;
	to node1908319089;
	length 226.378;
	latitude 802.446305682;
	configuration 70559-LINECONFIG;
};

object overhead_line {
	phases A;
	from node1908319089;