///////////////////////////////////////////////////////; 
// This glm created by 'Milsoft to GridLabD Export'. //; 
//             Thu Jan 22 14:38:39 2015              //; 
///////////////////////////////////////////////////////; 

clock { timestamp '2000-01-01 00:00:00'; } 

module powerflow{ solver_method FBS; } 
// Note: Number Of Looped Switches in WindMil = 0 

object node {
          name            BROMLEY; 
          phases          ABCN; 
          bustype         PQ; 
          voltage_A       +7559.9995+0j; 
          voltage_B       -3779.9998-6547.1514j; 
          voltage_C       -3779.9998+6547.1514j; 
          nominal_voltage 7200; 
          } 

object overhead_line {
          name   _8370; 
          from   BROMLEY; 
          to     _8370_n; 
          phases ABCN; 
          length 25.063543; 
          configuration SystemCnstDefaultABCN__336 ACSR 3PH_n__336 ACSR N; 
          } 

object node {name   _8370_n; phases ABCN; nominal_voltage 7200;  } 

object node {name   _8369_n; phases ABCN; nominal_voltage 7200;  } 

object overhead_line {
          name   _8369; 
          from   _8370_n; 
          to     _8369_n; 
          phases ABCN; 
          length 25.955877; 
          configuration SystemCnstDefaultABCN__336 ACSR 3PH_n__336 ACSR N; 
          } 

object overhead_line {
          name   _68262; 
          from   _8369_n; 
          to     _68262_n; 
          phases ABCN; 
          length 21.690086; 
          configuration SystemCnstDefaultABCN__336 ACSR 3PH_n__336 ACSR N; 
          } 

object node {name   _68262_n; phases ABCN; nominal_voltage 7200;  } 

object overhead_line {
          name   _68263; 
          from   _68262_n; 
          to     _68263_n; 
          phases ABCN; 
          length 25.58193; 
          configuration SystemCnstDefaultABCN__336 ACSR 3PH_n__336 ACSR N; 
          } 

object node {name   _68263_n; phases ABCN; nominal_voltage 7200;  } 

object recloser {
          name                R1398; 
          from                _68263_n; 
          to                  R1398_n; 
          phases              ABCN; 
          max_number_of_tries 0; 
          } 

object node {name   R1398_n; phases ABCN; nominal_voltage 7200;  } 

object overhead_line {
          name   _8586; 
          from   R1398_n; 
          to     _8586_n; 
          phases ABCN; 
          length 34.210091; 
          configuration SystemCnstDefaultABCN__336 ACSR 3PH_n__336 ACSR N; 
          } 

object node {name   _8586_n; phases ABCN; nominal_voltage 7200;  } 

object overhead_line {
          name   _8580; 
          from   _8586_n; 
          to     _8580_n; 
          phases ABCN; 
          length 108.40197; 
          configuration SystemCnstDefaultABCN__556 SPACER_n__556 SPACER N; 
          } 

object node {name   _8580_n; phases ABCN; nominal_voltage 7200;  } 

object overhead_line {
          name   _8258; 
          from   _8580_n; 
          to     _8258_n; 
          phases ABCN; 
          length 106.99813; 
          configuration SystemCnstDefaultABCN__556 SPACER_n__556 SPACER N; 
          } 

object node {name   _8258_n; phases ABCN; nominal_voltage 7200;  } 

object overhead_line {
          name   _8540; 
          from   _8258_n; 
          to     _8540_n; 
          phases ABCN; 
          length 131.12567; 
          configuration SystemCnstDefaultABCN__556 SPACER_n__556 SPACER N; 
          } 

object node {name   _8540_n; phases ABCN; nominal_voltage 7200;  } 

object overhead_line {
          name   _8494; 
          from   _8540_n; 
          to     _8494_n; 
          phases ABCN; 
          length 131.56326; 
          configuration SystemCnstDefaultABCN__556 SPACER_n__556 SPACER N; 
          } 

object node {name   _8494_n; phases ABCN; nominal_voltage 7200;  } 

object overhead_line {
          name   _8195; 
          from   _8494_n; 
          to     _8195_n; 
          phases ABCN; 
          length 106.2143; 
          configuration SystemCnstDefaultABCN__556 SPACER_n__556 SPACER N; 
          } 

object node {name   _8195_n; phases ABCN; nominal_voltage 7200;  } 

object overhead_line {
          name   _8194; 
          from   _8195_n; 
          to     _8194_n; 
          phases ABCN; 
          length 180.07768; 
          configuration SystemCnstDefaultABCN__556 SPACER_n__556 SPACER N; 
          } 

object node {name   _8194_n; phases ABCN; nominal_voltage 7200;  } 

object overhead_line {
          name   _8185; 
          from   _8194_n; 
          to     _8185_n; 
          phases ABCN; 
          length 255.53308; 
          configuration SystemCnstDefaultABCN__336 ACSR 3PH_n__336 ACSR N; 
          } 

object node {name   _8185_n; phases ABCN; nominal_voltage 7200;  } 

object overhead_line {
          name   _8337; 
          from   _8185_n; 
          to     _8337_n; 
          phases ABCN; 
          length 284.12555; 
          configuration SystemCnstDefaultABCN__336 ACSR 3PH_n__336 ACSR N; 
          } 

object node {name   _8337_n; phases ABCN; nominal_voltage 7200;  } 

object overhead_line {
          name   _8230; 
          from   _8337_n; 
          to     _8230_n; 
          phases ABCN; 
          length 180.36052; 
          configuration SystemCnstDefaultABCN__336 ACSR 3PH_n__336 ACSR N; 
          } 

object node {name   _8230_n; phases ABCN; nominal_voltage 7200;  } 

object overhead_line {
          name   _7354; 
          from   _8230_n; 
          to     _7354_n; 
          phases ABCN; 
          length 245.50931; 
          configuration SystemCnstDefaultABCN__336 ACSR 3PH_n__336 ACSR N; 
          } 

object node {name   _7354_n; phases ABCN; nominal_voltage 7200;  } 

object overhead_line {
          name   _8108; 
          from   _7354_n; 
          to     _8108_n; 
          phases ABCN; 
          length 320.36581; 
          configuration SystemCnstDefaultABCN__336 ACSR 3PH_n__336 ACSR N; 
          } 

object node {name   _8108_n; phases ABCN; nominal_voltage 7200;  } 

object overhead_line {
          name   _8068; 
          from   _8108_n; 
          to     _8068_n; 
          phases ABCN; 
          length 300.21155; 
          configuration SystemCnstDefaultABCN__336 ACSR 3PH_n__336 ACSR N; 
          } 

object node {name   _8068_n; phases ABCN; nominal_voltage 7200;  } 

object overhead_line {
          name   _7941; 
          from   _8068_n; 
          to     _7941_n; 
          phases ABCN; 
          length 285.92307; 
          configuration SystemCnstDefaultABCN__336 ACSR 3PH_n__336 ACSR N; 
          } 

object node {name   _7941_n; phases ABCN; nominal_voltage 7200;  } 

object overhead_line {
          name   _7476; 
          from   _7941_n; 
          to     _7476_n; 
          phases ABCN; 
          length 399.58127; 
          configuration SystemCnstDefaultABCN__336 ACSR 3PH_n__336 ACSR N; 
          } 

object node {name   _7476_n; phases ABCN; nominal_voltage 7200;  } 

object overhead_line {
          name   _7752; 
          from   _7476_n; 
          to     _7752_n; 
          phases ABCN; 
          length 184.54517; 
          configuration SystemCnstDefaultABCN__336 ACSR 3PH_n__336 ACSR N; 
          } 

object node {name   _7752_n; phases ABCN; nominal_voltage 7200;  } 

object overhead_line {
          name   _7733; 
          from   _7752_n; 
          to     _7733_n; 
          phases ABCN; 
          length 512.78015; 
          configuration SystemCnstDefaultABCN__336 ACSR 3PH_n__336 ACSR N; 
          } 

object node {name   _7733_n; phases ABCN; nominal_voltage 7200;  } 

object overhead_line {
          name   _7309; 
          from   _7733_n; 
          to     _7309_n; 
          phases ABCN; 
          length 533.96472; 
          configuration SystemCnstDefaultABCN__336 ACSR 3PH_n__336 ACSR N; 
          } 

object node {name   _7309_n; phases ABCN; nominal_voltage 7200;  } 

object overhead_line {
          name   _7213; 
          from   _7309_n; 
          to     _7213_n; 
          phases ABCN; 
          length 303.38547; 
          configuration SystemCnstDefaultABCN__336 ACSR 3PH_n__336 ACSR N; 
          } 

object node {name   _7213_n; phases ABCN; nominal_voltage 7200;  } 

object overhead_line {
          name   _7526; 
          from   _7213_n; 
          to     _7526_n; 
          phases ABCN; 
          length 240.80907; 
          configuration SystemCnstDefaultABCN__336 ACSR 3PH_n__336 ACSR N; 
          } 

object node {name   _7526_n; phases ABCN; nominal_voltage 7200;  } 

object overhead_line {
          name   _6516; 
          from   _7526_n; 
          to     _6516_n; 
          phases ABCN; 
          length 257.08121; 
          configuration SystemCnstDefaultABCN__336 ACSR 3PH_n__336 ACSR N; 
          } 

object node {name   _6516_n; phases ABCN; nominal_voltage 7200;  } 

object overhead_line {
          name   _7187; 
          from   _6516_n; 
          to     _7187_n; 
          phases ABCN; 
          length 183.12453; 
          configuration SystemCnstDefaultABCN__336 ACSR 3PH_n__336 ACSR N; 
          } 

object node {name   _7187_n; phases ABCN; nominal_voltage 7200;  } 

object overhead_line {
          name   _7147; 
          from   _7187_n; 
          to     _7147_n; 
          phases ABCN; 
          length 168.0423; 
          configuration SystemCnstDefaultABCN__336 ACSR 3PH_n__336 ACSR N; 
          } 

object node {name   _7147_n; phases ABCN; nominal_voltage 7200;  } 

object overhead_line {
          name   _6977; 
          from   _7147_n; 
          to     _6977_n; 
          phases ABCN; 
          length 390.4736; 
          configuration SystemCnstDefaultABCN__336 ACSR 3PH_n__336 ACSR N; 
          } 

object node {name   _6977_n; phases ABCN; nominal_voltage 7200;  } 

object overhead_line {
          name   _6026; 
          from   F8965_n; 
          to     _6026_n; 
          phases BN; 
          length 358.73767; 
          configuration SystemCnstDefaultBN__2 ACSR 1PH_n__2 ACSR N; 
          } 

object node {name   _6026_n; phases BN; nominal_voltage 7200;  } 

object transformer {
          name   T12143184733; 
          from   _6026_n; 
          to     T12143184733_n; 
          phases BN; 
          configuration SINGLE_PHASE-TRAN-15-7200To120V; 
          } 

object node {name   T12143184733_n; phases BN; nominal_voltage 120;  } 

object overhead_line {
          name   _6024; 
          from   _5361_n; 
          to     _6024_n; 
          phases BN; 
          length 437.99518; 
          configuration SystemCnstDefaultBN__2 ACSR 1PH_n__2 ACSR N; 
          } 

object node {name   _6024_n; phases BN; nominal_voltage 7200;  } 

object overhead_line {
          name   _6214; 
          from   _6024_n; 
          to     _6214_n; 
          phases BN; 
          length 13.391192; 
          configuration SystemCnstDefaultBN__2 ACSR 1PH_n__2 ACSR N; 
          } 

object node {name   _6214_n; phases BN; nominal_voltage 7200;  } 

object overhead_line {
          name   _6213; 
          from   _6214_n; 
          to     _6213_n; 
          phases BN; 
          length 14.065053; 
          configuration SystemCnstDefaultBN__2 ACSR 1PH_n__2 ACSR N; 
          } 

object node {name   _6213_n; phases BN; nominal_voltage 7200;  } 

object switch {
          name   SW1514-B_D3_1; 
          from   _6213_n; 
          to     _6221_n; 
          phases BN; 
          status OPEN; 
          } 

object overhead_line {
          name   _67644; 
          from   _6024_n; 
          to     _67644_n; 
          phases BN; 
          length 10.330631; 
          configuration SystemCnstDefaultBN__2 ACSR 1PH_n__2 ACSR N; 
          } 

object node {name   _67644_n; phases BN; nominal_voltage 7200;  } 

object recloser {
          name                R1044; 
          from                _67644_n; 
          to                  R1044_n; 
          phases              BN; 
          max_number_of_tries 0; 
          } 

object node {name   R1044_n; phases BN; nominal_voltage 7200;  } 

object overhead_line {
          name   _67645; 
          from   R1044_n; 
          to     _67645_n; 
          phases BN; 
          length 14.423206; 
          configuration SystemCnstDefaultBN__2 ACSR 1PH_n__2 ACSR N; 
          } 

object node {name   _67645_n; phases BN; nominal_voltage 7200;  } 

object overhead_line {
          name   _5710; 
          from   _4877_n; 
          to     _5710_n; 
          phases ABCN; 
          length 511.3479; 
          configuration SystemCnstDefaultABCN__1/0 CU 3PH_n__1/0 CU N; 
          } 

object node {name   _5710_n; phases ABCN; nominal_voltage 7200;  } 

object overhead_line {
          name   _5691; 
          from   _5710_n; 
          to     _5691_n; 
          phases ABCN; 
          length 511.13898; 
          configuration SystemCnstDefaultABCN__1/0 CU 3PH_n__1/0 CU N; 
          } 

object node {name   _5691_n; phases ABCN; nominal_voltage 7200;  } 

object overhead_line {
          name   _5678; 
          from   _5691_n; 
          to     _5678_n; 
          phases ABCN; 
          length 277.6243; 
          configuration SystemCnstDefaultABCN__1/0 CU 3PH_n__1/0 CU N; 
          } 

object node {name   _5678_n; phases ABCN; nominal_voltage 7200;  } 

object overhead_line {
          name   _5670; 
          from   _5678_n; 
          to     _5670_n; 
          phases ABCN; 
          length 135.026; 
          configuration SystemCnstDefaultABCN__1/0 CU 3PH_n__1/0 CU N; 
          } 

object node {name   _5670_n; phases ABCN; nominal_voltage 7200;  } 

object overhead_line {
          name   _5669; 
          from   _5670_n; 
          to     _5669_n; 
          phases ABCN; 
          length 563.62018; 
          configuration SystemCnstDefaultABCN__1/0 CU 3PH_n__1/0 CU N; 
          } 

object node {name   _5669_n; phases ABCN; nominal_voltage 7200;  } 

object overhead_line {
          name   _5683; 
          from   _5669_n; 
          to     _5683_n; 
          phases ABCN; 
          length 454.43076; 
          configuration SystemCnstDefaultABCN__1/0 CU 3PH_n__1/0 CU N; 
          } 

object node {name   _5683_n; phases ABCN; nominal_voltage 7200;  } 

object overhead_line {
          name   _5675; 
          from   _5683_n; 
          to     _5675_n; 
          phases CN; 
          length 19.480257; 
          configuration SystemCnstDefaultCN__6 ACWC 1PH_n__6 ACWC N; 
          } 

object node {name   _5675_n; phases CN; nominal_voltage 7200;  } 

object fuse {
          name          F6826; 
          from          _5675_n; 
          to            F6826_n; 
          phases        CN; 
          current_limit 0; 
          mean_replacement_time 1.0 ; 
          repair_dist_type      NONE; 
          } 

object node {name   F6826_n; phases CN; nominal_voltage 7200;  } 

object overhead_line {
          name   _5676; 
          from   F6826_n; 
          to     _5676_n; 
          phases CN; 
          length 202.23888; 
          configuration SystemCnstDefaultCN__6 ACWC 1PH_n__6 ACWC N; 
          } 

object node {name   _5676_n; phases CN; nominal_voltage 7200;  } 

object transformer {
          name   T12142164849; 
          from   _5676_n; 
          to     T12142164849_n; 
          phases CN; 
          configuration SINGLE_PHASE-TRAN-10-7200To120V; 
          } 

object node {name   T12142164849_n; phases CN; nominal_voltage 120;  } 

object overhead_line {
          name   _5689; 
          from   _5683_n; 
          to     _5689_n; 
          phases ABCN; 
          length 557.58838; 
          configuration SystemCnstDefaultABCN__1/0 CU 3PH_n__1/0 CU N; 
          } 

object node {name   _5689_n; phases ABCN; nominal_voltage 7200;  } 

object overhead_line {
          name   _5716; 
          from   _5689_n; 
          to     _5716_n; 
          phases ABCN; 
          length 25.000141; 
          configuration SystemCnstDefaultABCN__1/0 CU 3PH_n__1/0 CU N; 
          } 

object node {name   _5716_n; phases ABCN; nominal_voltage 7200;  } 

object node {name   SW1482-B_D3_1_n; phases ABCN; nominal_voltage 7200;  } 

object switch {
          name   SW1482-B_D3_1; 
          from   _5716_n; 
          to     SW1482-B_D3_1_n; 
          phases ABCN; 
          status CLOSED; 
          } 

object overhead_line {
          name   _5719; 
          from   SW1482-B_D3_1_n; 
          to     _5719_n; 
          phases ABCN; 
          length 336.29971; 
          configuration SystemCnstDefaultABCN__1/0 CU 3PH_n__1/0 CU N; 
          } 

object node {name   _5719_n; phases ABCN; nominal_voltage 7200;  } 

object overhead_line {
          name   _4602; 
          from   _5719_n; 
          to     _4602_n; 
          phases ABCN; 
          length 465.96271; 
          configuration SystemCnstDefaultABCN__1/0 CU 3PH_n__1/0 CU N; 
          } 

object node {name   _4602_n; phases ABCN; nominal_voltage 7200;  } 

object overhead_line {
          name   _4885; 
          from   _4602_n; 
          to     _4885_n; 
          phases ABCN; 
          length 121.68726; 
          configuration SystemCnstDefaultABCN__1/0 CU 3PH_n__1/0 CU N; 
          } 

object node {name   _4885_n; phases ABCN; nominal_voltage 7200;  } 

object overhead_line {
          name   _68533; 
          from   _4885_n; 
          to     _68533_n; 
          phases ABCN; 
          length 8.6067572; 
          configuration SystemCnstDefaultABCN__1/0 CU 3PH_n__1/0 CU N; 
          } 

object node {name   _68533_n; phases ABCN; nominal_voltage 7200;  } 

object regulator {
          name          VR10; 
          from          _68533_n; 
          to            VR10_n; 
          phases        ABCN; 
          sense_node    VR10_n; 
          configuration reguConfFor_VR10; 
          } 

object node {name   VR10_n; phases ABCN; nominal_voltage 7200;  } 

object overhead_line {
          name   _68532; 
          from   VR10_n; 
          to     _68532_n; 
          phases ABCN; 
          length 7.8995361; 
          configuration SystemCnstDefaultABCN__1/0 CU 3PH_n__1/0 CU N; 
          } 

object node {name   _68532_n; phases ABCN; nominal_voltage 7200;  } 

object overhead_line {
          name   _5555; 
          from   _68532_n; 
          to     _5555_n; 
          phases ABCN; 
          length 219.13507; 
          configuration SystemCnstDefaultABCN__1/0 CU 3PH_n__1/0 CU N; 
          } 

object node {name   _5555_n; phases ABCN; nominal_voltage 7200;  } 

object overhead_line {
          name   _4888; 
          from   _5555_n; 
          to     _4888_n; 
          phases ABCN; 
          length 290.68719; 
          configuration SystemCnstDefaultABCN__1/0 CU 3PH_n__1/0 CU N; 
          } 

object node {name   _4888_n; phases ABCN; nominal_voltage 7200;  } 

object overhead_line {
          name   _5322; 
          from   _4888_n; 
          to     _5322_n; 
          phases ABCN; 
          length 329.13705; 
          configuration SystemCnstDefaultABCN__1/0 CU 3PH_n__1/0 CU N; 
          } 

object node {name   _5322_n; phases ABCN; nominal_voltage 7200;  } 

object overhead_line {
          name   _5765; 
          from   _5322_n; 
          to     _5765_n; 
          phases ABCN; 
          length 224.19493; 
          configuration SystemCnstDefaultABCN__1/0 CU 3PH_n__1/0 CU N; 
          } 

object node {name   _5765_n; phases ABCN; nominal_voltage 7200;  } 

object overhead_line {
          name   _5856; 
          from   _5765_n; 
          to     _5856_n; 
          phases ABCN; 
          length 368.59543; 
          configuration SystemCnstDefaultABCN__1/0 CU 3PH_n__1/0 CU N; 
          } 

object node {name   _5856_n; phases ABCN; nominal_voltage 7200;  } 

object overhead_line {
          name   _5893; 
          from   _5856_n; 
          to     _5893_n; 
          phases ABCN; 
          length 361.12122; 
          configuration SystemCnstDefaultABCN__1/0 CU 3PH_n__1/0 CU N; 
          } 

object node {name   _5893_n; phases ABCN; nominal_voltage 7200;  } 

object overhead_line {
          name   _5937; 
          from   _5893_n; 
          to     _5937_n; 
          phases ABCN; 
          length 330.62231; 
          configuration SystemCnstDefaultABCN__1/0 CU 3PH_n__1/0 CU N; 
          } 

object node {name   _5937_n; phases ABCN; nominal_voltage 7200;  } 

object overhead_line {
          name   _5970; 
          from   _5937_n; 
          to     _5970_n; 
          phases ABCN; 
          length 326.53467; 
          configuration SystemCnstDefaultABCN__1/0 CU 3PH_n__1/0 CU N; 
          } 

object node {name   _5970_n; phases ABCN; nominal_voltage 7200;  } 

object overhead_line {
          name   _5782; 
          from   _5970_n; 
          to     _5782_n; 
          phases ABCN; 
          length 25.000114; 
          configuration SystemCnstDefaultABCN__1/0 CU 3PH_n__1/0 CU N; 
          } 

object node {name   _5782_n; phases ABCN; nominal_voltage 7200;  } 

object node {name   SW1481-B_D3_1_n; phases ABCN; nominal_voltage 7200;  } 

object switch {
          name   SW1481-B_D3_1; 
          from   _5782_n; 
          to     SW1481-B_D3_1_n; 
          phases ABCN; 
          status CLOSED; 
          } 

object overhead_line {
          name   _5785; 
          from   SW1481-B_D3_1_n; 
          to     _5785_n; 
          phases ABCN; 
          length 75.869637; 
          configuration SystemCnstDefaultABCN__1/0 CU 3PH_n__1/0 CU N; 
          } 

object node {name   _5785_n; phases ABCN; nominal_voltage 7200;  } 

object overhead_line {
          name   _5361; 
          from   _5785_n; 
          to     _5361_n; 
          phases BN; 
          length 410.86484; 
          configuration SystemCnstDefaultBN__2 ACSR 1PH_n__2 ACSR N; 
          } 

object node {name   _5361_n; phases BN; nominal_voltage 7200;  } 

object overhead_line {
          name   _6022; 
          from   _5361_n; 
          to     _6022_n; 
          phases BN; 
          length 18.769472; 
          configuration SystemCnstDefaultBN__2 ACSR 1PH_n__2 ACSR N; 
          } 

object node {name   _6022_n; phases BN; nominal_voltage 7200;  } 

object fuse {
          name          F8965; 
          from          _6022_n; 
          to            F8965_n; 
          phases        BN; 
          current_limit 0; 
          mean_replacement_time 1.0 ; 
          repair_dist_type      NONE; 
          } 

object node {name   F8965_n; phases BN; nominal_voltage 7200;  } 

object overhead_line {
          name   _6023; 
          from   F8965_n; 
          to     _6023_n; 
          phases BN; 
          length 310.17892; 
          configuration SystemCnstDefaultBN__2 ACSR 1PH_n__2 ACSR N; 
          } 

object node {name   _6023_n; phases BN; nominal_voltage 7200;  } 

object transformer {
          name   T12143183758; 
          from   _6023_n; 
          to     T12143183758_n; 
          phases BN; 
          configuration SINGLE_PHASE-TRAN-10-7200To120V; 
          } 

object node {name   T12143183758_n; phases BN; nominal_voltage 120;  } 

object overhead_line {
          name   _5560; 
          from   _5564_n; 
          to     _5560_n; 
          phases ABCN; 
          length 88.089249; 
          configuration SystemCnstDefaultABCN__336 ACSR 3PH_n__336 ACSR N; 
          } 

object node {name   _5560_n; phases ABCN; nominal_voltage 7200;  } 

object overhead_line {
          name   _5559; 
          from   _5560_n; 
          to     _5559_n; 
          phases ABCN; 
          length 82.755341; 
          configuration SystemCnstDefaultABCN__1/0 CU 3PH_n__1/0 CU N; 
          } 

object node {name   _5559_n; phases ABCN; nominal_voltage 7200;  } 

object overhead_line {
          name   _5568; 
          from   _5559_n; 
          to     _5568_n; 
          phases ABCN; 
          length 477.36093; 
          configuration SystemCnstDefaultABCN__1/0 CU 3PH_n__1/0 CU N; 
          } 

object node {name   _5568_n; phases ABCN; nominal_voltage 7200;  } 

object overhead_line {
          name   _5587; 
          from   _5568_n; 
          to     _5587_n; 
          phases ABCN; 
          length 518.40314; 
          configuration SystemCnstDefaultABCN__1/0 CU 3PH_n__1/0 CU N; 
          } 

object node {name   _5587_n; phases ABCN; nominal_voltage 7200;  } 

object overhead_line {
          name   _5754; 
          from   _5587_n; 
          to     _5754_n; 
          phases ABCN; 
          length 551.06049; 
          configuration SystemCnstDefaultABCN__1/0 CU 3PH_n__1/0 CU N; 
          } 

object node {name   _5754_n; phases ABCN; nominal_voltage 7200;  } 

object overhead_line {
          name   _5341; 
          from   _5754_n; 
          to     _5341_n; 
          phases ABCN; 
          length 537.44232; 
          configuration SystemCnstDefaultABCN__1/0 CU 3PH_n__1/0 CU N; 
          } 

object node {name   _5341_n; phases ABCN; nominal_voltage 7200;  } 

object overhead_line {
          name   _5848; 
          from   _5341_n; 
          to     _5848_n; 
          phases ABCN; 
          length 317.9325; 
          configuration SystemCnstDefaultABCN__1/0 CU 3PH_n__1/0 CU N; 
          } 

object node {name   _5848_n; phases ABCN; nominal_voltage 7200;  } 

object overhead_line {
          name   _5869; 
          from   _5848_n; 
          to     _5869_n; 
          phases ABCN; 
          length 418.54153; 
          configuration SystemCnstDefaultABCN__1/0 CU 3PH_n__1/0 CU N; 
          } 

object node {name   _5869_n; phases ABCN; nominal_voltage 7200;  } 

object overhead_line {
          name   _5900; 
          from   _5869_n; 
          to     _5900_n; 
          phases ABCN; 
          length 340.12759; 
          configuration SystemCnstDefaultABCN__1/0 CU 3PH_n__1/0 CU N; 
          } 

object node {name   _5900_n; phases ABCN; nominal_voltage 7200;  } 

object overhead_line {
          name   _5930; 
          from   _5900_n; 
          to     _5930_n; 
          phases ABCN; 
          length 548.48767; 
          configuration SystemCnstDefaultABCN__1/0 CU 3PH_n__1/0 CU N; 
          } 

object node {name   _5930_n; phases ABCN; nominal_voltage 7200;  } 

object overhead_line {
          name   _5967; 
          from   _5930_n; 
          to     _5967_n; 
          phases ABCN; 
          length 345.71371; 
          configuration SystemCnstDefaultABCN__1/0 CU 3PH_n__1/0 CU N; 
          } 

object node {name   _5967_n; phases ABCN; nominal_voltage 7200;  } 

object overhead_line {
          name   _5992; 
          from   _5967_n; 
          to     _5992_n; 
          phases ABCN; 
          length 373.5589; 
          configuration SystemCnstDefaultABCN__1/0 CU 3PH_n__1/0 CU N; 
          } 

object node {name   _5992_n; phases ABCN; nominal_voltage 7200;  } 

object overhead_line {
          name   _5366; 
          from   _5992_n; 
          to     _5366_n; 
          phases ABCN; 
          length 286.08505; 
          configuration SystemCnstDefaultABCN__1/0 CU 3PH_n__1/0 CU N; 
          } 

object node {name   _5366_n; phases ABCN; nominal_voltage 7200;  } 

object overhead_line {
          name   _5374; 
          from   _5366_n; 
          to     _5374_n; 
          phases ABCN; 
          length 207.98346; 
          configuration SystemCnstDefaultABCN__1/0 CU 3PH_n__1/0 CU N; 
          } 

object node {name   _5374_n; phases ABCN; nominal_voltage 7200;  } 

object overhead_line {
          name   _6094; 
          from   _5374_n; 
          to     _6094_n; 
          phases ABCN; 
          length 350.02936; 
          configuration SystemCnstDefaultABCN__1/0 CU 3PH_n__1/0 CU N; 
          } 

object node {name   _6094_n; phases ABCN; nominal_voltage 7200;  } 

object overhead_line {
          name   _6103; 
          from   _6094_n; 
          to     _6103_n; 
          phases ABCN; 
          length 536.32001; 
          configuration SystemCnstDefaultABCN__1/0 CU 3PH_n__1/0 CU N; 
          } 

object node {name   _6103_n; phases ABCN; nominal_voltage 7200;  } 

object overhead_line {
          name   _5994; 
          from   _6103_n; 
          to     _5994_n; 
          phases ABCN; 
          length 438.401; 
          configuration SystemCnstDefaultABCN__1/0 CU 3PH_n__1/0 CU N; 
          } 

object node {name   _5994_n; phases ABCN; nominal_voltage 7200;  } 

object overhead_line {
          name   _6004; 
          from   _5994_n; 
          to     _6004_n; 
          phases ABCN; 
          length 197.00749; 
          configuration SystemCnstDefaultABCN__1/0 CU 3PH_n__1/0 CU N; 
          } 

object node {name   _6004_n; phases ABCN; nominal_voltage 7200;  } 

object overhead_line {
          name   _6006; 
          from   _6004_n; 
          to     _6006_n; 
          phases ABCN; 
          length 184.6277; 
          configuration SystemCnstDefaultABCN__1/0 CU 3PH_n__1/0 CU N; 
          } 

object node {name   _6006_n; phases ABCN; nominal_voltage 7200;  } 

object overhead_line {
          name   _5369; 
          from   _6006_n; 
          to     _5369_n; 
          phases ABCN; 
          length 347.92801; 
          configuration SystemCnstDefaultABCN__1/0 CU 3PH_n__1/0 CU N; 
          } 
