clock {
	timezone PST+8PDT;
	starttime '2000-01-01 00:00:00';
	stoptime '2000-01-01 00:00:00';
};

#set minimum_timestep=60;
#set profiler=1;
#set relax_naming_rules=1;
module generators;
module tape;
module residential {
	implicit_enduses NONE;
};

module powerflow {
	solver_method NR;
	NR_iteration_limit 50;
};

object node {
	phases ABCN;
	name BROMLEY;
	bustype SWING;
	longitude 109.866527217;
	nominal_voltage 7200.0;
	latitude 1102.95072772;
};

object overhead_line {
	phases ACB;
	from BROMLEY;
	name 8370;
	longitude 110.116783338;
	to node83698370;
	length 25.0635;
	latitude 1102.90202735;
	configuration 68266-LINECONFIG;
};

object overhead_line {
	phases ACB;
	from node83698370;
	name 8369;
	longitude 110.375852802;
	to node682628369;
	length 25.9559;
	latitude 1102.84802083;
	configuration 68266-LINECONFIG;
};

object overhead_line {
	phases ACB;
	from node682628369;
	name 68262;
	longitude 110.553802867;
	to node6826368262;
	length 21.6901;
	latitude 1102.50869651;
	configuration 68266-LINECONFIG;
};

object overhead_line {
	phases ACB;
	from node6826368262;
	name 68263;
	to nodeR139868263;
	longitude 110.76368136;
	length 25.5819;
	latitude 1102.10848464;
	configuration 68266-LINECONFIG;
};

object fuse {
	phases ACB;
	from nodeR139868263;
	name R1398;
	current_limit 9999.0 A;
	longitude 110.76368136;
	to node8586R1398;
	latitude 1102.10848464;
};

object overhead_line {
	phases ACB;
	from node8586R1398;
	name 8586;
	longitude 111.102888381;
	to node85808586;
	length 34.2101;
	latitude 1101.98021519;
	configuration 68266-LINECONFIG;
};

object overhead_line {
	phases ACB;
	from node85808586;
	name 8580;
	longitude 112.144052213;
	to node82588580;
	length 108.402;
	latitude 1102.81419574;
	configuration 8194-LINECONFIG;
};

object overhead_line {
	phases ACB;
	from node82588580;
	name 8258;
	longitude 112.015129987;
	to node85408258;
	length 106.998;
	latitude 1099.9139521;
	configuration 8194-LINECONFIG;
};

object overhead_line {
	phases ACB;
	from node85408258;
	name 8540;
	longitude 111.870297922;
	to node84948540;
	length 131.126;
	latitude 1096.35555118;
	configuration 8194-LINECONFIG;
};

object overhead_line {
	phases ACB;
	from node84948540;
	name 8494;
	longitude 111.725984577;
	to node81958494;
	length 131.563;
	latitude 1092.78497139;
	configuration 8194-LINECONFIG;
};

object overhead_line {
	phases ACB;
	from node81958494;
	name 8195;
	longitude 111.645321579;
	to node81948195;
	length 106.214;
	latitude 1089.89324694;
	configuration 8194-LINECONFIG;
};

object line_configuration {
	name 8194-LINECONFIG;
	spacing 71752-LINESPACING;
	conductor_A 8194_conductor_C;
	conductor_C 8194_conductor_C;
	conductor_B 8194_conductor_C;
};

object overhead_line_conductor {
	diameter 1.156;
	name 8194_conductor_C;
	geometric_mean_radius 0.048;
	resistance 0.203;
};

object overhead_line {
	phases ACB;
	from node81948195;
	name 8194;
	to node81858194;
	longitude 111.546522956;
	length 180.078;
	latitude 1084.98378478;
	configuration 8194-LINECONFIG;
};

object overhead_line {
	phases ACB;
	from node81858194;
	name 8185;
	longitude 114.084482336;
	to node83378185;
	length 255.533;
	latitude 1084.11323773;
	configuration 68266-LINECONFIG;
};

object overhead_line {
	phases ACB;
	from node83378185;
	name 8337;
	longitude 116.903601049;
	to node82308337;
	length 284.126;
	latitude 1083.08594394;
	configuration 68266-LINECONFIG;
};

object overhead_line {
	phases ACB;
	from node82308337;
	name 8230;
	longitude 116.606383413;
	to node73548230;
	length 180.361;
	latitude 1078.2285568;
	configuration 68266-LINECONFIG;
};

object overhead_line {
	phases ACB;
	from node73548230;
	name 7354;
	longitude 116.205726784;
	to node81087354;
	length 245.509;
	latitude 1071.61483534;
	configuration 68266-LINECONFIG;
};

object overhead_line {
	phases ACB;
	from node81087354;
	name 8108;
	longitude 115.700161762;
	to node80688108;
	length 320.366;
	latitude 1062.97692677;
	configuration 68266-LINECONFIG;
};

object overhead_line {
	phases ACB;
	from node80688108;
	name 8068;
	longitude 115.000505889;
	to node79418068;
	length 300.212;
	latitude 1055.0051764;
	configuration 68266-LINECONFIG;
};

object overhead_line {
	phases ACB;
	from node79418068;
	name 7941;
	longitude 114.592275591;
	to node74767941;
	length 285.923;
	latitude 1047.27813269;
	configuration 68266-LINECONFIG;
};

object overhead_line {
	phases ACB;
	from node74767941;
	name 7476;
	to node77527476;
	longitude 114.057981215;
	length 399.581;
	latitude 1036.46571134;
	configuration 68266-LINECONFIG;
};

object overhead_line {
	phases ACB;
	from node77527476;
	name 7752;
	longitude 113.775507673;
	to node77337752;
	length 184.545;
	latitude 1031.4861325;
	configuration 68266-LINECONFIG;
};

object overhead_line {
	phases ACB;
	from node77337752;
	name 7733;
	longitude 113.08542153;
	to node73097733;
	length 512.78;
	latitude 1017.61225453;
	configuration 68266-LINECONFIG;
};

object overhead_line {
	phases ACB;
	from node73097733;
	name 7309;
	longitude 112.314008258;
	to node72137309;
	length 533.965;
	latitude 1003.1854809;
	configuration 68266-LINECONFIG;
};

object overhead_line {
	phases ACB;
	from node72137309;
	name 7213;
	longitude 111.778145505;
	to node75267213;
	length 303.385;
	latitude 995.031792862;
	configuration 68266-LINECONFIG;
};

object overhead_line {
	phases ACB;
	from node75267213;
	name 7526;
	longitude 111.337384354;
	to node65167526;
	length 240.809;
	latitude 988.567572154;
	configuration 68266-LINECONFIG;
};

object overhead_line {
	phases ACB;
	from node65167526;
	name 6516;
	longitude 110.873782446;
	to node71876516;
	length 257.081;
	latitude 981.663051748;
	configuration 68266-LINECONFIG;
};

object overhead_line {
	phases ACB;
	from node71876516;
	name 7187;
	longitude 110.595374954;
	to node71477187;
	length 183.125;
	latitude 976.72100934;
	configuration 68266-LINECONFIG;
};

object overhead_line {
	phases ACB;
	from node71477187;
	name 7147;
	to node69777147;
	longitude 111.175032528;
	length 168.042;
	latitude 972.413793103;
	configuration 68266-LINECONFIG;
};

object overhead_line {
	phases ACB;
	from node69777147;
	name 6977;
	longitude 112.314943053;
	to node68466977;
	length 390.474;
	latitude 962.215724866;
	configuration 68266-LINECONFIG;
};

object overhead_line {
	phases ACB;
	from node68466977;
	name 6846;
	longitude 112.106295677;
	to node67136846;
	length 434.375;
	latitude 950.369180373;
	configuration 68266-LINECONFIG;
};

object overhead_line {
	phases ACB;
	from node67136846;
	name 6713;
	longitude 111.942690126;
	to node67146713;
	length 452.545;
	latitude 938.020910363;
	configuration 68266-LINECONFIG;
};

object overhead_line {
	phases C;
	from node67146713;
	name 6714;
	longitude 112.10165103;
	to nodeF90486714;
	length 19.3827;
	latitude 938.324368123;
	configuration 71710-LINECONFIG;
};

object fuse {
	phases C;
	from nodeF90486714;
	name F9048;
	current_limit 9999.0 A;
	longitude 112.10165103;
	to node6715F9048;
	latitude 938.324368123;
};

object overhead_line {
	phases C;
	from node6715F9048;
	name 6715;
	longitude 113.902195557;
	to nodeT121590159036715;
	length 219.546;
	latitude 941.761573916;
	configuration 71710-LINECONFIG;
};

object overhead_line {
	phases ACB;
	from node67146713;
	name 6475;
	longitude 111.571684205;
	to node64716475;
	length 444.672;
	latitude 925.921808266;
	configuration 68266-LINECONFIG;
};

object overhead_line {
	phases C;
	from node64716475;
	name 6471;
	longitude 111.717443731;
	to nodeF89296471;
	length 25.0003;
	latitude 925.36692949;
	configuration 71710-LINECONFIG;
};

object fuse {
	phases C;
	from nodeF89296471;
	name F8929;
	current_limit 9999.0 A;
	longitude 111.717443731;
	to node6463F8929;
	latitude 925.36692949;
};

object overhead_line {
	phases C;
	from node6463F8929;
	name 6463;
	longitude 112.220788463;
	to node61116463;
	length 86.333;
	latitude 923.450773738;
	configuration 71710-LINECONFIG;
};

object overhead_line {
	phases C;
	from node61116463;
	name 6111;
	longitude 114.156207353;
	to node63646111;
	length 343.566;
	latitude 915.696424305;
	configuration 71710-LINECONFIG;
};

object overhead_line {
	phases C;
	from node63646111;
	name 6364;
	longitude 115.948349727;
	to node62406364;
	length 325.005;
	latitude 908.290208362;
	configuration 71710-LINECONFIG;
};

object overhead_line {
	phases ACB;
	from node64716475;
	name 6147;
	longitude 110.190897275;
	to node63486147;
	length 319.893;
	latitude 918.041160878;
	configuration 68266-LINECONFIG;
};

object overhead_line {
	phases ACB;
	from node63486147;
	name 6348;
	longitude 108.034318204;
	to node62636348;
	length 494.97;
	latitude 905.873781963;
	configuration 68266-LINECONFIG;
};

object overhead_line {
	phases ACB;
	from node62636348;
	name 6263;
	longitude 107.433405355;
	to node63196263;
	length 133.552;
	latitude 902.616407349;
	configuration 68266-LINECONFIG;
};

object overhead_line {
	phases A;
	from node63196263;
	name 6319;
	longitude 107.270309971;
	to nodeF55416319;
	length 19.2755;
	latitude 902.89763889;
	configuration 4824-LINECONFIG;
};

object fuse {
	phases A;
	from nodeF55416319;
	name F5541;
	current_limit 9999.0 A;
	longitude 107.270309971;
	to node6318F5541;
	latitude 902.89763889;
};

object overhead_line {
	phases A;
	from node6318F5541;
	name 6318;
	longitude 105.047695298;
	to nodeT121751883676318;
	length 262.678;
	latitude 906.729998694;
	configuration 4824-LINECONFIG;
};

object overhead_line {
	phases ACB;
	from node63196263;
	name 6262;
	longitude 106.550299403;
	to node60296262;
	length 196.269;
	latitude 897.829321844;
	configuration 68266-LINECONFIG;
};

object overhead_line {
	phases ACB;
	from node60296262;
	name 6029;
	longitude 105.075348111;
	to node58226029;
	length 313.199;
	latitude 890.283155913;
	configuration 68266-LINECONFIG;
};

object overhead_line {
	phases ACB;
	from node58226029;
	name 5822;
	longitude 105.353446447;
	to node60915822;
	length 105.836;
	latitude 887.494744941;
	configuration 68266-LINECONFIG;
};

object overhead_line {
	phases ACB;
	from node60915822;
	name 6091;
	longitude 106.327259245;
	to node57876091;
	length 368.088;
	latitude 877.801795242;
	configuration 68266-LINECONFIG;
};

object overhead_line {
	phases ACB;
	from node57876091;
	name 5787;
	longitude 107.4759324;
	to node59755787;
	length 458.346;
	latitude 865.685623108;
	configuration 68266-LINECONFIG;
};

object overhead_line {
	phases ACB;
	from node59755787;
	name 5975;
	longitude 108.055589974;
	to node59265975;
	length 212.18;
	latitude 860.1121742;
	configuration 68266-LINECONFIG;
};

object overhead_line {
	phases ACB;
	from node59265975;
	name 5926;
	to node58815926;
	longitude 108.221071224;
	length 335.407;
	latitude 850.965319123;
	configuration 68266-LINECONFIG;
};

object overhead_line {
	phases ACB;
	from node58815926;
	name 5881;
	longitude 108.374037833;
	to node58325881;
	length 275.923;
	latitude 843.443049245;
	configuration 68266-LINECONFIG;
};

object overhead_line {
	phases ACB;
	from node58325881;
	name 5832;
	longitude 108.546087696;
	to node57555832;
	length 298.87;
	latitude 835.296192221;
	configuration 68266-LINECONFIG;
};

object overhead_line {
	phases ACB;
	from node57555832;
	name 5755;
	longitude 108.711256736;
	to node48895755;
	length 369.369;
	latitude 825.220998937;
	configuration 68266-LINECONFIG;
};

object overhead_line {
	phases ACB;
	from node48895755;
	name 4889;
	longitude 109.667239396;
	to node55654889;
	length 191.945;
	latitude 820.674860474;
	configuration 68266-LINECONFIG;
};

object overhead_line {
	phases ACB;
	from node55654889;
	name 5565;
	longitude 109.729921345;
	to nodeSW1082-Bx15565;
	length 18.1269;
	latitude 820.210391408;
	configuration 68266-LINECONFIG;
};

object switch {
	status CLOSED;
	phases ACB;
	from nodeSW1082-Bx15565;
	name SW1082-Bx1;
	longitude 109.729921345;
	to nodeSW1082-Ax1SW1082-Bx1;
	latitude 820.210391408;
};

object switch {
	status CLOSED;
	phases ACB;
	from nodeSW1082-Ax1SW1082-Bx1;
	name SW1082-Ax1;
	longitude 109.729921345;
	to node5564SW1082-Ax1;
	latitude 820.210391408;
};

object overhead_line {
	phases ACB;
	from node5564SW1082-Ax1;
	name 5564;
	to node55605564;
	longitude 110.487138571;
	length 218.97;
	latitude 814.599711032;
	configuration 68266-LINECONFIG;
};

object overhead_line {
	phases ACB;
	from node55605564;
	name 5560;
	longitude 111.349269077;
	to node55595560;
	length 88.0892;
	latitude 814.09459749;
	configuration 68266-LINECONFIG;
};

object overhead_line {
	phases ACB;
	from node55595560;
	name 5559;
	longitude 112.133198821;
	to node55685559;
	length 82.7553;
	latitude 814.82497623;
	configuration 6396-LINECONFIG;
};

object overhead_line {
	phases ACB;
	from node55685559;
	name 5568;
	longitude 116.585878419;
	to node55875568;
	length 477.361;
	latitude 819.555405472;
	configuration 6396-LINECONFIG;
};

object overhead_line {
	phases ACB;
	from node55875568;
	name 5587;
	longitude 121.364522725;
	to node57545587;
	length 518.403;
	latitude 825.074239589;
	configuration 6396-LINECONFIG;
};

object overhead_line {
	phases ACB;
	from node57545587;
	name 5754;
	longitude 126.449413071;
	to node53415754;
	length 551.06;
	latitude 830.907063789;
	configuration 6396-LINECONFIG;
};

object overhead_line {
	phases ACB;
	from node53415754;
	name 5341;
	longitude 131.252450628;
	to node58485341;
	length 537.442;
	latitude 837.518060501;
	configuration 6396-LINECONFIG;
};

object overhead_line {
	phases ACB;
	from node58485341;
	name 5848;
	longitude 134.061891467;
	to node58695848;
	length 317.932;
	latitude 841.596611857;
	configuration 6396-LINECONFIG;
};

object overhead_line {
	phases ACB;
	from node58695848;
	name 5869;
	to node59005869;
	longitude 137.799464809;
	length 418.542;
	latitude 846.76049313;
	configuration 6396-LINECONFIG;
};

object overhead_line {
	phases ACB;
	from node59005869;
	name 5900;
	longitude 140.805984176;
	to node59305900;
	length 340.128;
	latitude 851.118904488;
	configuration 6396-LINECONFIG;
};

object overhead_line {
	phases ACB;
	from node59305900;
	name 5930;
	longitude 145.703181821;
	to node59675930;
	length 548.488;
	latitude 857.890305919;
	configuration 6396-LINECONFIG;
};

object overhead_line {
	phases ACB;
	from node59675930;
	name 5967;
	longitude 148.742228374;
	to node59925967;
	length 345.714;
	latitude 862.405715651;
	configuration 6396-LINECONFIG;
};

object overhead_line {
	phases ACB;
	from node59925967;
	name 5992;
	longitude 152.040604056;
	to node53665992;
	length 373.559;
	latitude 867.211231072;
	configuration 6396-LINECONFIG;
};

object overhead_line {
	phases ACB;
	from node53665992;
	name 5366;
	longitude 154.893209188;
	to node53745366;
	length 286.085;
	latitude 867.900658711;
	configuration 6396-LINECONFIG;
};

object overhead_line {
	phases ACB;
	from node53745366;
	name 5374;
	longitude 156.966582987;
	to node60945374;
	length 207.983;
	latitude 868.416029598;
	configuration 6396-LINECONFIG;
};

object overhead_line {
	phases ACB;
	from node60945374;
	name 6094;
	longitude 160.453277622;
	to node61036094;
	length 350.029;
	latitude 869.361432845;
	configuration 6396-LINECONFIG;
};

object overhead_line {
	phases ACB;
	from node61036094;
	name 6103;
	to node59946103;
	longitude 165.798119682;
	length 536.32;
	latitude 870.740281459;
	configuration 6396-LINECONFIG;
};

object overhead_line {
	phases ACB;
	from node59946103;
	name 5994;
	longitude 170.164462751;
	to node60045994;
	length 438.401;
	latitude 871.941660315;
	configuration 6396-LINECONFIG;
};

object overhead_line {
	phases ACB;
	from node60045994;
	name 6004;
	longitude 172.125849991;
	to node60066004;
	length 197.007;
	latitude 872.501393645;
	configuration 6396-LINECONFIG;
};

object overhead_line {
	phases ACB;
	from node60066004;
	name 6006;
	longitude 173.962729922;
	to node53696006;
	length 184.628;
	latitude 873.057713967;
	configuration 6396-LINECONFIG;
};

object overhead_line {
	phases ACB;
	from node53696006;
	name 5369;
	longitude 176.7583969;
	to node59685369;
	length 347.928;
	latitude 867.392120502;
	configuration 6396-LINECONFIG;
};

object overhead_line {
	phases ACB;
	from node59685369;
	name 5968;
	longitude 181.133502598;
	to node59125968;
	length 548.936;
	latitude 858.323757949;
	configuration 6396-LINECONFIG;
};

object overhead_line {
	phases ACB;
	from node59125968;
	name 5912;
	longitude 185.891808707;
	to node59105912;
	length 594.475;
	latitude 848.576206783;
	configuration 6396-LINECONFIG;
};

object overhead_line {
	phases B;
	from node59105912;
	name 5910;
	longitude 185.789840335;
	to nodeF83705910;
	length 24.9996;
	latitude 847.95284952;
	configuration 3132-LINECONFIG;
};

object fuse {
	phases B;
	from nodeF83705910;
	name F8370;
	current_limit 9999.0 A;
	longitude 185.789840335;
	to node5862F8370;
	latitude 847.95284952;
};

object overhead_line {
	phases B;
	from node5862F8370;
	name 5862;
	longitude 184.6133158;
	to node55695862;
	length 288.451;
	latitude 840.760408214;
	configuration 3132-LINECONFIG;
};

object overhead_line {
	phases B;
	from node55695862;
	name 5569;
	longitude 180.639871177;
	to node47325569;
	length 1024.75;
	latitude 814.9649029;
	configuration 3132-LINECONFIG;
};

object overhead_line {
	phases B;
	from node47325569;
	name 4732;
	longitude 179.930397516;
	to nodeT121582306934732;
	length 186.955;
	latitude 810.241299673;
	configuration 3132-LINECONFIG;
};

object overhead_line {
	phases ACB;
	from node59105912;
	name 5877;
	longitude 188.839515442;
	to node58425877;
	length 362.115;
	latitude 842.821881769;
	configuration 6396-LINECONFIG;
};

object overhead_line {
	phases ACB;
	from node58425877;
	name 5842;
	longitude 191.625180116;
	to node53365842;
	length 349.381;
	latitude 837.053891398;
	configuration 6396-LINECONFIG;
};

object overhead_line {
	phases ACB;
	from node53365842;
	name 5336;
	to node57505336;
	longitude 195.166304235;
	length 436.664;
	latitude 830.064045789;
	configuration 6396-LINECONFIG;
};

object overhead_line {
	phases ACB;
	from node57505336;
	name 5750;
	longitude 197.988566423;
	to node55755750;
	length 353.051;
	latitude 824.261936996;
	configuration 6396-LINECONFIG;
};

object overhead_line {
	phases ACB;
	from node55755750;
	name 5575;
	longitude 201.90131905;
	to node46135575;
	length 486.93;
	latitude 816.333525815;
	configuration 6396-LINECONFIG;
};

object overhead_line {
	phases ACB;
	from node46135575;
	name 4613;
	longitude 208.642906754;
	to node48774613;
	length 837.743;
	latitude 802.729263823;
	configuration 6396-LINECONFIG;
};

object overhead_line {
	phases ACB;
	from node48774613;
	name 4877;
	longitude 211.636282177;
	to node57104877;
	length 377.71;
	latitude 796.428867505;
	configuration 6396-LINECONFIG;
};

object overhead_line {
	phases ACB;
	from node57104877;
	name 5710;
	longitude 215.782403525;
	to node56915710;
	length 511.348;
	latitude 788.241056048;
	configuration 6396-LINECONFIG;
};

object overhead_line {
	phases ACB;
	from node56915710;
	name 5691;
	longitude 219.898488028;
	to node56785691;
	length 511.139;
	latitude 779.950859345;
	configuration 6396-LINECONFIG;
};

object overhead_line {
	phases ACB;
	from node56785691;
	name 5678;
	longitude 222.035363096;
	to node56705678;
	length 277.624;
	latitude 775.104381165;
	configuration 6396-LINECONFIG;
};

object overhead_line {
	phases ACB;
	from node56705678;
	name 5670;
	to node56695670;
	longitude 223.159323458;
	length 135.026;
	latitude 773.056576298;
	configuration 6396-LINECONFIG;
};

object overhead_line {
	phases ACB;
	from node56695670;
	name 5669;
	longitude 228.700622684;
	to node56835669;
	length 563.62;
	latitude 775.95080218;
	configuration 6396-LINECONFIG;
};

object overhead_line {
	phases ACB;
	from node56835669;
	name 5683;
	longitude 233.146108029;
	to node56755683;
	length 454.431;
	latitude 778.58223643;
	configuration 6396-LINECONFIG;
};

object overhead_line {
	phases C;
	from node56755683;
	name 5675;
	longitude 233.289000241;
	to nodeF68265675;
	length 19.4803;
	latitude 778.220299262;
	configuration 8736-LINECONFIG;
};

object fuse {
	phases C;
	from nodeF68265675;
	name F6826;
	current_limit 9999.0 A;
	longitude 233.289000241;
	to node5676F6826;
	latitude 778.220299262;
};

object overhead_line {
	phases C;
	from node5676F6826;
	name 5676;
	longitude 234.772460609;
	to nodeT121421648495676;
	length 202.239;
	latitude 774.46273564;
	configuration 8736-LINECONFIG;
};

object overhead_line {
	phases ACB;
	from node56755683;
	name 5689;
	to node57165689;
	longitude 236.457309337;
	length 557.588;
	latitude 790.838343563;
	configuration 6396-LINECONFIG;
};

object overhead_line {
	phases ACB;
	from node57165689;
	name 5716;
	longitude 236.601058138;
	to nodeSW1482-Bx15716;
	length 25.0001;
	latitude 791.397105305;
	configuration 6396-LINECONFIG;
};

object switch {
	status CLOSED;
	phases ACB;
	from nodeSW1482-Bx15716;
	name SW1482-Bx1;
	longitude 236.601058138;
	to nodeSW1482-Ax1SW1482-Bx1;
	latitude 791.397105305;
};

object switch {
	status CLOSED;
	phases ACB;
	from nodeSW1482-Ax1SW1482-Bx1;
	name SW1482-Ax1;
	longitude 236.601058138;
	to node5719SW1482-Ax1;
	latitude 791.397105305;
};

object overhead_line {
	phases ACB;
	from node5719SW1482-Ax1;
	name 5719;
	longitude 238.534749186;
	to node46025719;
	length 336.3;
	latitude 798.913532413;
	configuration 6396-LINECONFIG;
};

object overhead_line {
	phases ACB;
	from node46025719;
	name 4602;
	longitude 240.361306665;
	to node48854602;
	length 465.963;
	latitude 810.620143574;
	configuration 6396-LINECONFIG;
};

object overhead_line {
	phases ACB;
	from node48854602;
	name 4885;
	longitude 240.845594417;
	to node685334885;
	length 121.687;
	latitude 813.668828059;
	configuration 6396-LINECONFIG;
};

object overhead_line {
	phases ACB;
	from node685334885;
	name 68533;
	longitude 240.879845169;
	to nodeVR1068533;
	length 10;
	latitude 813.884459182;
	configuration 6396-LINECONFIG;
};

object regulator_configuration {
	Control OUTPUT_VOLTAGE;
	Type A;
	raise_taps 16.0;
	name VR10-CONFIG;
	band_center 126.0;
	current_transducer_ratio 150;
	tap_pos_B 1;
	tap_pos_C 1;
	time_delay 30.0;
	connect_type WYE_WYE;
	regulation 0.1;
	CT_phase ABC;
	power_transducer_ratio 60.0;
	lower_taps 16.0;
	tap_pos_A 1;
	control_level INDIVIDUAL;
	PT_phase ABC;
	band_width 2.000004;
};

object regulator {
	phases ACB;
	from nodeVR1068533;
	name VR10;
	to node68532VR10;
	longitude 240.879845169;
	latitude 813.884459182;
	configuration VR10-CONFIG;
};

object overhead_line {
	phases ACB;
	from node68532VR10;
	name 68532;
	longitude 240.911283594;
	to node555568532;
	length 10;
	latitude 814.08237032;
	configuration 6396-LINECONFIG;
};

object overhead_line {
	phases ACB;
	from node555568532;
	name 5555;
	longitude 241.783385853;
	to node48885555;
	length 219.135;
	latitude 819.572463851;
	configuration 6396-LINECONFIG;
};

object overhead_line {
	phases ACB;
	from node48885555;
	name 4888;
	longitude 242.982112675;
	to node53224888;
	length 290.687;
	latitude 826.804639698;
	configuration 6396-LINECONFIG;
};

object overhead_line {
	phases ACB;
	from node53224888;
	name 5322;
	longitude 244.323487319;
	to node57655322;
	length 329.137;
	latitude 835.012912547;
	configuration 6396-LINECONFIG;
};

object overhead_line {
	phases ACB;
	from node57655322;
	name 5765;
	longitude 245.975492374;
	to node58565765;
	length 224.195;
	latitude 839.156299398;
	configuration 6396-LINECONFIG;
};

object overhead_line {
	phases ACB;
	from node58565765;
	name 5856;
	longitude 248.676380343;
	to node58935856;
	length 368.595;
	latitude 846.013037691;
	configuration 6396-LINECONFIG;
};

object overhead_line {
	phases ACB;
	from node58935856;
	name 5893;
	longitude 251.308758867;
	to node59375893;
	length 361.121;
	latitude 852.770788755;
	configuration 6396-LINECONFIG;
};

object overhead_line {
	phases ACB;
	from node59375893;
	name 5937;
	to node59705937;
	longitude 253.77034003;
	length 330.622;
	latitude 858.805003752;
	configuration 6396-LINECONFIG;
};

object overhead_line {
	phases ACB;
	from node59705937;
	name 5970;
	longitude 256.166230185;
	to node57825970;
	length 326.535;
	latitude 864.86991417;
	configuration 6396-LINECONFIG;
};

object overhead_line {
	phases ACB;
	from node57825970;
	name 5782;
	longitude 256.353855679;
	to nodeSW1481-Bx15782;
	length 25.0001;
	latitude 865.321621124;
	configuration 6396-LINECONFIG;
};

object switch {
	status CLOSED;
	phases ACB;
	from nodeSW1481-Bx15782;
	name SW1481-Bx1;
	longitude 256.353855679;
	to nodeSW1481-Ax1SW1481-Bx1;
	latitude 865.321621124;
};

object switch {
	status CLOSED;
	phases ACB;
	from nodeSW1481-Ax1SW1481-Bx1;
	name SW1481-Ax1;
	longitude 256.353855679;
	to node5785SW1481-Ax1;
	latitude 865.321621124;
};

object overhead_line {
	phases ACB;
	from node5785SW1481-Ax1;
	name 5785;
	longitude 256.923256786;
	to node53615785;
	length 75.8696;
	latitude 866.692453839;
	configuration 6396-LINECONFIG;
};

object overhead_line {
	phases B;
	from node53615785;
	name 5361;
	longitude 259.961992352;
	to node60225361;
	length 410.865;
	latitude 874.25226181;
	configuration 3132-LINECONFIG;
};

object overhead_line {
	phases B;
	from node60225361;
	name 6022;
	longitude 259.801313991;
	to nodeF89656022;
	length 18.7695;
	latitude 874.517891507;
	configuration 3132-LINECONFIG;
};

object fuse {
	phases B;
	from nodeF89656022;
	name F8965;
	current_limit 9999.0 A;
	longitude 259.801313991;
	to node6023F8965;
	latitude 874.517891507;
};

object overhead_line {
	phases B;
	from node6023F8965;
	name 6023;
	longitude 257.145986567;
	to nodeT121431837586023;
	length 310.179;
	latitude 878.907616533;
	configuration 3132-LINECONFIG;
};

object overhead_line {
	phases B;
	from node6023F8965;
	name 6026;
	longitude 258.113541129;
	to nodeT121431847336026;
	length 358.738;
	latitude 883.163637648;
	configuration 3132-LINECONFIG;
};

object overhead_line {
	phases B;
	from node60225361;
	name 6024;
	longitude 263.234399684;
	to node62146024;
	length 437.995;
	latitude 882.211401722;
	configuration 3132-LINECONFIG;
};

object overhead_line {
	phases B;
	from node62146024;
	name 6214;
	to node62136214;
	longitude 263.364238376;
	length 13.3912;
	latitude 882.120485384;
	configuration 3132-LINECONFIG;
};

object overhead_line {
	phases B;
	from node62136214;
	name 6213;
	longitude 263.42352757;
	to nodeSW1514-Bx16213;
	length 14.0651;
	latitude 882.468808856;
	configuration 3132-LINECONFIG;
};

object overhead_line {
	phases B;
	from node62146024;
	name 67644;
	longitude 263.28102516;
	to nodeR104467644;
	length 10.3306;
	latitude 882.463172723;
	configuration 3132-LINECONFIG;
};

object fuse {
	phases B;
	from nodeR104467644;
	name R1044;
	current_limit 9999.0 A;
	longitude 263.281023327;
	to node67645R1044;
	latitude 882.463172723;
};

object overhead_line {
	phases B;
	from node67645R1044;
	name 67645;
	longitude 263.346122301;
	to node621967645;
	length 14.4232;
	latitude 882.81468591;
	configuration 3132-LINECONFIG;
};

object overhead_line {
	phases B;
	from node621967645;
	name 6219;
	longitude 265.304960546;
	to node60736219;
	length 434.021;
	latitude 893.392416296;
	configuration 3132-LINECONFIG;
};

object overhead_line {
	phases B;
	from node60736219;
	name 6057;
	to node63356057;
	longitude 267.509092558;
	length 478.763;
	latitude 905.000056883;
	configuration 3132-LINECONFIG;
};

object overhead_line {
	phases B;
	from node63356057;
	name 6335;
	longitude 269.601860595;
	to node61226335;
	length 465.802;
	latitude 916.365373895;
	configuration 3132-LINECONFIG;
};

object overhead_line {
	phases B;
	from node61226335;
	name 6122;
	longitude 271.093387079;
	to node65366122;
	length 210.806;
	latitude 920.437092572;
	configuration 3132-LINECONFIG;
};

object overhead_line {
	phases B;
	from node65366122;
	name 6536;
	longitude 277.508702754;
	to node67116536;
	length 903.07;
	latitude 937.809298863;
	configuration 3132-LINECONFIG;
};

object overhead_line {
	phases B;
	from node67116536;
	name 6711;
	longitude 282.245420607;
	to node65136711;
	length 673.133;
	latitude 950.881119931;
	configuration 3132-LINECONFIG;
};

object overhead_line {
	phases B;
	from node65136711;
	name 6513;
	longitude 283.463544722;
	to node68706513;
	length 170.203;
	latitude 954.130315312;
	configuration 3132-LINECONFIG;
};

object overhead_line {
	phases B;
	from node68706513;
	name 6870;
	longitude 286.316150464;
	to node69666870;
	length 399.158;
	latitude 961.761794787;