///////////////////////////////////////////////////////; 
// This glm created by 'Milsoft to GridLabD Export'. //; 
//             Wed Jan 28 15:54:29 2015              //; 
///////////////////////////////////////////////////////; 

clock { timestamp '2000-01-01 00:00:00'; } 

module powerflow{ solver_method FBS; } 
// Note: Number Of Looped Switches in WindMil = 0 

object node {
          name            ARBOR LAKE; 
          phases          ABCN; 
          bustype         PQ; 
          voltage_A       +7559.9995+0j; 
          voltage_B       -3779.9998-6547.1514j; 
          voltage_C       -3779.9998+6547.1514j; 
          nominal_voltage 7200; 
          } 

object node {name   _1069647_n; phases ABCN; nominal_voltage 7200;  } 

object underground_line {
          name   _1069647; 
          from   ARBOR LAKE; 
          to     _1069647_n; 
          phases ABCN; 
          length 19; 
          configuration SystemCnstDefaultABC__750 URD UG Conductor; 
          } 

object recloser {
          name                D95617; 
          from                _1069647_n; 
          to                  D95617_n; 
          phases              ABCN; 
          max_number_of_tries 0; 
          } 

object node {name   D95617_n; phases ABCN; nominal_voltage 7200;  } 

object underground_line {
          name   _1077548; 
          from   D95617_n; 
          to     _1077548_n; 
          phases ABCN; 
          length 7; 
          configuration SystemCnstDefaultABC__750 URD UG Conductor; 
          } 

object node {name   _1077548_n; phases ABCN; nominal_voltage 7200;  } 

object underground_line {
          name   _1100520; 
          from   _1077548_n; 
          to     _1100520_n; 
          phases ABCN; 
          length 308; 
          configuration SystemCnstDefaultABC__750 URD UG Conductor; 
          } 

object node {name   _1100520_n; phases ABCN; nominal_voltage 7200;  } 

object node {name   _95881-B_n; phases ABCN; nominal_voltage 7200;  } 

object switch {
          name   _95881-B; 
          from   _1100520_n; 
          to     _95881-B_n; 
          phases ABCN; 
          status CLOSED; 
          } 

object underground_line {
          name   _1100521; 
          from   _95881-B_n; 
          to     _1100521_n; 
          phases ABCN; 
          length 3; 
          configuration SystemCnstDefaultABC__750 URD UG Conductor; 
          } 

object node {name   _1100521_n; phases ABCN; nominal_voltage 7200;  } 

object underground_line {
          name   _1074044; 
          from   _1100521_n; 
          to     _1074044_n; 
          phases ABCN; 
          length 28; 
          configuration SystemCnstDefaultABC__750 URD UG Conductor; 
          } 

object node {name   _1074044_n; phases ABCN; nominal_voltage 7200;  } 

object switch {
          name   _94914-A; 
          from   _1074044_n; 
          to     _1074043_n; 
          phases ABCN; 
          status OPEN; 
          } 

object underground_line {
          name   _1074052; 
          from   _1100521_n; 
          to     _1074052_n; 
          phases ABCN; 
          length 25; 
          configuration SystemCnstDefaultABC__750 URD UG Conductor; 
          } 

object node {name   _1074052_n; phases ABCN; nominal_voltage 7200;  } 

object underground_line {
          name   _1100523; 
          from   _1100521_n; 
          to     _1100523_n; 
          phases ABCN; 
          length 4; 
          configuration SystemCnstDefaultABC__750 URD UG Conductor; 
          } 

object node {name   _1100523_n; phases ABCN; nominal_voltage 7200;  } 

object node {name   _96360-B_n; phases ABCN; nominal_voltage 7200;  } 

object switch {
          name   _96360-B; 
          from   _1100523_n; 
          to     _96360-B_n; 
          phases ABCN; 
          status CLOSED; 
          } 

object underground_line {
          name   _1100524; 
          from   _96360-B_n; 
          to     _1100524_n; 
          phases ABCN; 
          length 1230; 
          configuration SystemCnstDefaultABC__750 URD UG Conductor; 
          } 

object node {name   _1100524_n; phases ABCN; nominal_voltage 7200;  } 

object node {name   _95667-B_n; phases ABCN; nominal_voltage 7200;  } 

object switch {
          name   _95667-B; 
          from   _1100524_n; 
          to     _95667-B_n; 
          phases ABCN; 
          status CLOSED; 
          } 

object underground_line {
          name   _1100059; 
          from   _95667-B_n; 
          to     _1100059_n; 
          phases ABCN; 
          length 3; 
          configuration SystemCnstDefaultABC__750 URD UG Conductor; 
          } 

object node {name   _1100059_n; phases ABCN; nominal_voltage 7200;  } 

object underground_line {
          name   _1100081; 
          from   _1100059_n; 
          to     _1100081_n; 
          phases ABCN; 
          length 4; 
          configuration SystemCnstDefaultABC__750 URD UG Conductor; 
          } 

object node {name   _1100081_n; phases ABCN; nominal_voltage 7200;  } 

object node {name   _96224-B_n; phases ABCN; nominal_voltage 7200;  } 

object switch {
          name   _96224-B; 
          from   _1100081_n; 
          to     _96224-B_n; 
          phases ABCN; 
          status CLOSED; 
          } 

object underground_line {
          name   _1100752; 
          from   _96224-B_n; 
          to     _1100752_n; 
          phases ABCN; 
          length 1676; 
          configuration SystemCnstDefaultABC__750 URD UG Conductor; 
          } 

object node {name   _1100752_n; phases ABCN; nominal_voltage 7200;  } 

object node {name   _95990-B_n; phases ABCN; nominal_voltage 7200;  } 

object switch {
          name   _95990-B; 
          from   _1100752_n; 
          to     _95990-B_n; 
          phases ABCN; 
          status CLOSED; 
          } 

object underground_line {
          name   _1100753; 
          from   _95990-B_n; 
          to     _1100753_n; 
          phases ABCN; 
          length 2; 
          configuration SystemCnstDefaultABC__750 URD UG Conductor; 
          } 

object node {name   _1100753_n; phases ABCN; nominal_voltage 7200;  } 

object underground_line {
          name   _1100755; 
          from   _1100753_n; 
          to     _1100755_n; 
          phases ABCN; 
          length 21; 
          configuration SystemCnstDefaultABC__1/0 URD UG Conductor; 
          } 

object node {name   _1100755_n; phases ABCN; nominal_voltage 7200;  } 

object fuse {
          name          R96398; 
          from          _1100755_n; 
          to            R96398_n; 
          phases        ABCN; 
          current_limit 0; 
          mean_replacement_time 1.0 ; 
          repair_dist_type      NONE; 
          } 

object node {name   R96398_n; phases ABCN; nominal_voltage 7200;  } 

object underground_line {
          name   _1100754; 
          from   R96398_n; 
          to     _1100754_n; 
          phases ABCN; 
          length 501; 
          configuration SystemCnstDefaultABC__1/0 URD UG Conductor; 
          } 

object node {name   _1100754_n; phases ABCN; nominal_voltage 7200;  } 

object underground_line {
          name   _1094498; 
          from   _1100754_n; 
          to     _1094498_n; 
          phases ABCN; 
          length 901; 
          configuration SystemCnstDefaultABC__1/0 URD UG Conductor; 
          } 

object node {name   _1094498_n; phases ABCN; nominal_voltage 7200;  } 

object underground_line {
          name   _1094497; 
          from   _1094498_n; 
          to     _1094497_n; 
          phases ABCN; 
          length 785; 
          configuration SystemCnstDefaultABC__1/0 URD UG Conductor; 
          } 

object node {name   _1094497_n; phases ABCN; nominal_voltage 7200;  } 

object underground_line {
          name   _1094495; 
          from   _1094497_n; 
          to     _1094495_n; 
          phases ABCN; 
          length 357; 
          configuration SystemCnstDefaultABC__1/0 URD UG Conductor; 
          } 

object node {name   _1094495_n; phases ABCN; nominal_voltage 7200;  } 

object underground_line {
          name   _1102248; 
          from   _1094495_n; 
          to     _1102248_n; 
          phases ABCN; 
          length 185; 
          configuration SystemCnstDefaultABC__1/0 URD UG Conductor; 
          } 

object node {name   _1102248_n; phases ABCN; nominal_voltage 7200;  } 

object transformer {
          name   _443118; 
          from   _1094495_n; 
          to     _443118_n; 
          phases ABCN; 
          configuration WYE_WYE-_150-UG3Ph-7200To120V; 
          } 

object node {name   _443118_n; phases ABCN; nominal_voltage 120;  } 

object transformer {
          name   _443116; 
          from   _1094497_n; 
          to     _443116_n; 
          phases ABCN; 
          configuration WYE_WYE-_750-UG3Ph-7200To480V; 
          } 

object node {name   _443116_n; phases ABCN; nominal_voltage 480;  } 

object transformer {
          name   _443121; 
          from   _1094498_n; 
          to     _443121_n; 
          phases ABCN; 
          configuration WYE_WYE-_750-UG3Ph-7200To480V; 
          } 

object node {name   _443121_n; phases ABCN; nominal_voltage 480;  } 

object transformer {
          name   _443120; 
          from   _1100754_n; 
          to     _443120_n; 
          phases ABCN; 
          configuration WYE_WYE-_750-UG3Ph-7200To120V; 
          } 

object node {name   _443120_n; phases ABCN; nominal_voltage 120;  } 

object overhead_line {
          name   _1099647; 
          from   _1075246_n; 
          to     _1099647_n; 
          phases ABCN; 
          length 418; 
          configuration SystemCnstDefaultABCN__#4 ACSR 6/1; 
          } 

object node {name   _1099647_n; phases ABCN; nominal_voltage 7200;  } 

object overhead_line {
          name   _1099706; 
          from   _1099647_n; 
          to     _1099706_n; 
          phases ABCN; 
          length 320; 
          configuration SystemCnstDefaultABCN__#4 ACSR 6/1; 
          } 

object node {name   _1099706_n; phases ABCN; nominal_voltage 7200;  } 

object transformer {
          name   _452170; 
          from   _1099706_n; 
          to     _452170_n; 
          phases ABCN; 
          configuration WYE_WYE-_75-Overheadx3-7200To120V; 
          } 

object node {name   _452170_n; phases ABCN; nominal_voltage 120;  } 

object overhead_line {
          name   _1099707; 
          from   _1099647_n; 
          to     _1099707_n; 
          phases BN; 
          length 78; 
          configuration SystemCnstDefaultBN__6 A (CWC); 
          } 

object node {name   _1099707_n; phases BN; nominal_voltage 7200;  } 

object fuse {
          name          D92877; 
          from          _1099707_n; 
          to            D92877_n; 
          phases        BN; 
          current_limit 0; 
          mean_replacement_time 1.0 ; 
          repair_dist_type      NONE; 
          } 

object node {name   D92877_n; phases BN; nominal_voltage 7200;  } 

object overhead_line {
          name   _1099708; 
          from   D92877_n; 
          to     _1099708_n; 
          phases BN; 
          length 344; 
          configuration SystemCnstDefaultBN__6 A (CWC); 
          } 

object node {name   _1099708_n; phases BN; nominal_voltage 7200;  } 

object transformer {
          name   _450329; 
          from   _1099708_n; 
          to     _450329_n; 
          phases BN; 
          configuration SINGLE_PHASE-_15-Overhead-7200To240V; 
          } 

object node {name   _450329_n; phases BN; nominal_voltage 240;  } 

object overhead_line {
          name   _1154078; 
          from   _1075246_n; 
          to     _1154078_n; 
          phases ABCN; 
          length 114; 
          configuration SystemCnstDefaultABCN__#4 ACSR 6/1; 
          } 

object node {name   _1154078_n; phases ABCN; nominal_voltage 7200;  } 

object overhead_line {
          name   _1099561; 
          from   _1154078_n; 
          to     _1099561_n; 
          phases ABCN; 
          length 486; 
          configuration SystemCnstDefaultABCN__#4 ACSR 6/1; 
          } 

object node {name   _1099561_n; phases ABCN; nominal_voltage 7200;  } 

object underground_line {
          name   _1076093; 
          from   _1099561_n; 
          to     _1076093_n; 
          phases ABCN; 
          length 407; 
          configuration SystemCnstDefaultABC__1/0 URD UG Conductor; 
          } 

object node {name   _1076093_n; phases ABCN; nominal_voltage 7200;  } 

object transformer {
          name   _430597; 
          from   _1076093_n; 
          to     _430597_n; 
          phases ABCN; 
          configuration WYE_WYE-_1000-UG3Ph-7200To120V; 
          } 

object node {name   _430597_n; phases ABCN; nominal_voltage 120;  } 

object overhead_line {
          name   _1099562; 
          from   _1099561_n; 
          to     _1099562_n; 
          phases ABCN; 
          length 377; 
          configuration SystemCnstDefaultABCN__#4 ACSR 6/1; 
          } 

object node {name   _1099562_n; phases ABCN; nominal_voltage 7200;  } 

object transformer {
          name   _438096; 
          from   _1099562_n; 
          to     _438096_n; 
          phases ABCN; 
          configuration WYE_WYE-_501-Overheadx3-7200To120V; 
          } 

object node {name   _438096_n; phases ABCN; nominal_voltage 120;  } 

object transformer {
          name   _451102; 
          from   _1154078_n; 
          to     _451102_n; 
          phases ABCN; 
          configuration WYE_WYE-_150-Overheadx3-7200To480V; 
          } 

object node {name   _451102_n; phases ABCN; nominal_voltage 480;  } 

object transformer {
          name   _440120; 
          from   _1075246_n; 
          to     _440120_n; 
          phases BN; 
          configuration SINGLE_PHASE-_10-Overhead-7200To240V; 
          } 

object node {name   _440120_n; phases BN; nominal_voltage 240;  } 

object underground_line {
          name   _1076786; 
          from   _1078953_n; 
          to     _1076786_n; 
          phases ABCN; 
          length 1430; 
          configuration SystemCnstDefaultABC__4/0 URD UG Conductor; 
          } 

object node {name   _1076786_n; phases ABCN; nominal_voltage 7200;  } 

object underground_line {
          name   _1075245; 
          from   _1076786_n; 
          to     _1075245_n; 
          phases BN; 
          length 62; 
          configuration SystemCnstDefaultB__1/0 URD UG Conductor; 
          } 

object node {name   _1075245_n; phases BN; nominal_voltage 7200;  } 

object transformer {
          name   _440133; 
          from   _1075245_n; 
          to     _440133_n; 
          phases BN; 
          configuration SINGLE_PHASE-_15-Underground PM-7200To240V; 
          } 

object node {name   _440133_n; phases BN; nominal_voltage 240;  } 

object underground_line {
          name   _1089731; 
          from   _1076786_n; 
          to     _1089731_n; 
          phases ACN; 
          length 79; 
          configuration SystemCnstDefaultAC__1/0 URD UG Conductor; 
          } 

object node {name   _1089731_n; phases ACN; nominal_voltage 7200;  } 

object transformer {
          name   _438319; 
          from   _1089731_n; 
          to     _438319_n; 
          phases ACN; 
          configuration WYE_WYE-_20-Overheadx2-7200To120V; 
          } 

object node {name   _438319_n; phases ACN; nominal_voltage 120;  } 

object underground_line {
          name   _1085565; 
          from   _1078953_n; 
          to     _1085565_n; 
          phases AN; 
          length 212; 
          configuration SystemCnstDefaultA__1/0 URD UG Conductor; 
          } 

object node {name   _1085565_n; phases AN; nominal_voltage 7200;  } 

object underground_line {
          name   _1085566; 
          from   _1085565_n; 
          to     _1085566_n; 
          phases AN; 
          length 59; 
          configuration SystemCnstDefaultA__1/0 URD UG Conductor; 
          } 

object node {name   _1085566_n; phases AN; nominal_voltage 7200;  } 

object transformer {
          name   _440014; 
          from   _1085566_n; 
          to     _440014_n; 
          phases AN; 
          configuration SINGLE_PHASE-_15-Underground PM-7200To480V; 
          } 

object node {name   _440014_n; phases AN; nominal_voltage 480;  } 

object transformer {
          name   _431061; 
          from   _1085565_n; 
          to     _431061_n; 
          phases AN; 
          configuration SINGLE_PHASE-_15-Underground PM-7200To240V; 
          } 

object node {name   _431061_n; phases AN; nominal_voltage 240;  } 

object underground_line {
          name   _1100697; 
          from   _1100696_n; 
          to     _1100697_n; 
          phases ABCN; 
          length 3; 
          configuration SystemCnstDefaultABC__750 URD UG Conductor; 
          } 

object node {name   _1100697_n; phases ABCN; nominal_voltage 7200;  } 

object node {name   _96388-B_n; phases ABCN; nominal_voltage 7200;  } 

object switch {
          name   _96388-B; 
          from   _1100697_n; 
          to     _96388-B_n; 
          phases ABCN; 
          status CLOSED; 
          } 

object underground_line {
          name   _1100698; 
          from   _96388-B_n; 
          to     _1100698_n; 
          phases ABCN; 
          length 1846; 
          configuration SystemCnstDefaultABC__750 URD UG Conductor; 
          } 

object node {name   _1075744_n; phases AN; nominal_voltage 7200;  } 

object switch {
          name   _95123-B; 
          from   _1075744_n; 
          to     _1093581_n; 
          phases AN; 
          status OPEN; 
          } 

object underground_line {
          name   _1102056; 
          from   _1081186_n; 
          to     _1102056_n; 
          phases ABCN; 
          length 11; 
          configuration SystemCnstDefaultABC__1/0 URD UG Conductor; 
          } 

object node {name   _1102056_n; phases ABCN; nominal_voltage 7200;  } 

object transformer {
          name   _445801; 
          from   _1102056_n; 
          to     _445801_n; 
          phases ABCN; 
          configuration WYE_WYE-_75-UG3Ph-7200To120V; 
          } 

object node {name   _445801_n; phases ABCN; nominal_voltage 120;  } 

object underground_line {
          name   _1100467; 
          from   _1100459_n; 
          to     _1100467_n; 
          phases ABCN; 
          length 3; 
          configuration SystemCnstDefaultABC__750 URD UG Conductor; 
          } 

object node {name   _1100467_n; phases ABCN; nominal_voltage 7200;  } 

object node {name   _96358-B_n; phases ABCN; nominal_voltage 7200;  } 

object switch {
          name   _96358-B; 
          from   _1100467_n; 
          to     _96358-B_n; 
          phases ABCN; 
          status CLOSED; 
          } 

object underground_line {
          name   _1100600; 
          from   _96358-B_n; 
          to     _1100600_n; 
          phases ABCN; 
          length 1774; 
          configuration SystemCnstDefaultABC__750 URD UG Conductor; 
          } 

object node {name   _1100600_n; phases ABCN; nominal_voltage 7200;  } 

object node {name   _95906-B_n; phases ABCN; nominal_voltage 7200;  } 

object switch {
          name   _95906-B; 
          from   _1100600_n; 
          to     _95906-B_n; 
          phases ABCN; 
          status CLOSED; 
          } 

object underground_line {
          name   _1100601; 
          from   _95906-B_n; 
          to     _1100601_n; 
          phases ABCN; 
          length 3; 
          configuration SystemCnstDefaultABC__750 URD UG Conductor; 
          } 

object node {name   _1100601_n; phases ABCN; nominal_voltage 7200;  } 

object underground_line {
          name   _1080827; 
          from   _1100601_n; 
          to     _1080827_n; 
          phases ABCN; 
          length 26; 
          configuration SystemCnstDefaultABC__1/0 URD UG Conductor; 
          } 

object node {name   _1080827_n; phases ABCN; nominal_voltage 7200;  } 

object fuse {
          name          R93861; 
          from          _1080827_n; 
          to            R93861_n; 
          phases        ABCN; 
          current_limit 0; 
          mean_replacement_time 1.0 ; 
          repair_dist_type      NONE; 
          } 

object node {name   R93861_n; phases ABCN; nominal_voltage 7200;  } 

object underground_line {
          name   _1080828; 
          from   R93861_n; 
          to     _1080828_n; 
          phases ABCN; 
          length 118; 
          configuration SystemCnstDefaultABC__1/0 URD UG Conductor; 
          } 

object node {name   _1080828_n; phases ABCN; nominal_voltage 7200;  } 

object overhead_line {
          name   _1099594; 
          from   _1080828_n; 
          to     _1099594_n; 
          phases ABCN; 
          length 272; 
          configuration SystemCnstDefaultABCN__#4 ACSR 6/1; 
          } 

object node {name   _1099594_n; phases ABCN; nominal_voltage 7200;  } 

object overhead_line {
          name   _1070469; 
          from   _1099594_n; 
          to     _1070469_n; 
          phases ABCN; 
          length 240; 
          configuration SystemCnstDefaultABCN__6 A (CWC); 
          } 

object node {name   _1070469_n; phases ABCN; nominal_voltage 7200;  } 

object underground_line {
          name   _1076003; 
          from   _1070469_n; 
          to     _1076003_n; 
          phases ABCN; 
          length 95; 
          configuration SystemCnstDefaultABC__1/0 URD UG Conductor; 
          } 

object node {name   _1076003_n; phases ABCN; nominal_voltage 7200;  } 

object transformer {
          name   _438108; 
          from   _1076003_n; 
          to     _438108_n; 
          phases ABCN; 
          configuration WYE_WYE-_150-Underground PMx3-7200To120V; 
          } 

object node {name   _438108_n; phases ABCN; nominal_voltage 120;  } 

object overhead_line {
          name   _1099595; 
          from   _1099594_n; 
          to     _1099595_n; 
          phases ABCN; 
          length 399; 
          configuration SystemCnstDefaultABCN__#4 ACSR 6/1; 
          } 

object node {name   _1099595_n; phases ABCN; nominal_voltage 7200;  } 

object underground_line {
          name   _1075632; 
          from   _1099595_n; 
          to     _1075632_n; 
          phases ABCN; 
          length 160; 
          configuration SystemCnstDefaultABC__1/0 URD UG Conductor; 
          } 

object node {name   _1075632_n; phases ABCN; nominal_voltage 7200;  } 

object transformer {
          name   _435340; 
          from   _1075632_n; 
          to     _435340_n; 
          phases ABCN; 
          configuration WYE_WYE-_500-UG3Ph-7200To120V; 
          } 

object node {name   _435340_n; phases ABCN; nominal_voltage 120;  } 

object overhead_line {
          name   _1099560; 
          from   _1099595_n; 
          to     _1099560_n; 
          phases ABCN; 
          length 223; 
          configuration SystemCnstDefaultABCN__#4 ACSR 6/1; 
          } 

object node {name   _1099560_n; phases ABCN; nominal_voltage 7200;  } 

object underground_line {
          name   _1075633; 
          from   _1099560_n; 
          to     _1075633_n; 
          phases ABCN; 
          length 162; 
          configuration SystemCnstDefaultABC__1/0 URD UG Conductor; 
          } 

object node {name   _1075633_n; phases ABCN; nominal_voltage 7200;  } 

object transformer {
          name   _437324; 
          from   _1075633_n; 
          to     _437324_n; 
          phases ABCN; 
          configuration WYE_WYE-_500-UG3Ph-7200To120V; 
          } 

object node {name   _437324_n; phases ABCN; nominal_voltage 120;  } 

object overhead_line {
          name   _1093750; 
          from   _1099560_n; 
          to     _1093750_n; 
          phases ABCN; 
          length 273; 
          configuration SystemCnstDefaultABCN__#4 ACSR 6/1; 
          } 

object node {name   _1093750_n; phases ABCN; nominal_voltage 7200;  } 

object transformer {
          name   _441303; 
          from   _1093750_n; 
          to     _441303_n; 
          phases ABCN; 
          configuration WYE_WYE-_225-Overheadx3-7200To120V; 
          } 

object node {name   _441303_n; phases ABCN; nominal_voltage 120;  } 

object transformer {
          name   _440394; 
          from   _1099560_n; 
          to     _440394_n; 
          phases AN; 
          configuration SINGLE_PHASE-_15-Overhead-7200To240V; 
          } 

object node {name   _440394_n; phases AN; nominal_voltage 240;  } 

object transformer {
          name   _450222; 
          from   _1099595_n; 
          to     _450222_n; 
          phases BN; 
          configuration SINGLE_PHASE-_15-Overhead-7200To240V; 
          } 

object node {name   _450222_n; phases BN; nominal_voltage 240;  } 

object transformer {
          name   _449724; 
          from   _1099594_n; 
          to     _449724_n; 
          phases BN; 
          configuration SINGLE_PHASE-_15-Overhead-7200To240V; 
          } 

object node {name   _449724_n; phases BN; nominal_voltage 240;  } 

object underground_line {
          name   _1100602; 
          from   _1100601_n; 
          to     _1100602_n; 
          phases ABCN; 
          length 3; 
          configuration SystemCnstDefaultABC__750 URD UG Conductor; 
          } 

object node {name   _1100602_n; phases ABCN; nominal_voltage 7200;  } 

object node {name   _96365-B_n; phases ABCN; nominal_voltage 7200;  } 

object switch {
          name   _96365-B; 
          from   _1100602_n; 
          to     _96365-B_n; 
          phases ABCN; 
          status CLOSED; 
          } 

object underground_line {
          name   _1100603; 
          from   _96365-B_n; 
          to     _1100603_n; 
          phases ABCN; 
          length 1660; 
          configuration SystemCnstDefaultABC__750 URD UG Conductor; 
          } 

object node {name   _1100603_n; phases ABCN; nominal_voltage 7200;  } 

object node {name   _95903-B_n; phases ABCN; nominal_voltage 7200;  } 

object switch {
          name   _95903-B; 
          from   _1100603_n; 
          to     _95903-B_n; 
          phases ABCN; 
          status CLOSED; 
          } 

object underground_line {
          name   _1100696; 
          from   _95903-B_n; 
          to     _1100696_n; 
          phases ABCN; 
          length 3; 
          configuration SystemCnstDefaultABC__750 URD UG Conductor; 
          } 

object node {name   _1100696_n; phases ABCN; nominal_voltage 7200;  } 

object underground_line {
          name   _1078952; 
          from   _1100696_n; 
          to     _1078952_n; 
          phases ABCN; 
          length 32.996952; 
          configuration SystemCnstDefaultABC__4/0 URD UG Conductor; 
          } 

object node {name   _1078952_n; phases ABCN; nominal_voltage 7200;  } 

object fuse {
          name          R92887; 
          from          _1078952_n; 
          to            R92887_n; 
          phases        ABCN; 
          current_limit 0; 
          mean_replacement_time 1.0 ; 
          repair_dist_type      NONE; 
          } 

object node {name   R92887_n; phases ABCN; nominal_voltage 7200;  } 

object underground_line {
          name   _1078953; 
          from   R92887_n; 
          to     _1078953_n; 
          phases ABCN; 
          length 32; 
          configuration SystemCnstDefaultABC__4/0 URD UG Conductor; 
          } 

object node {name   _1078953_n; phases ABCN; nominal_voltage 7200;  } 

object underground_line {
          name   _1075246; 
          from   _1078953_n; 
          to     _1075246_n; 
          phases ABCN; 
          length 99; 
          configuration SystemCnstDefaultABC__1/0 URD UG Conductor; 
          } 

object node {name   _1075246_n; phases ABCN; nominal_voltage 7200;  } 

object fuse {
          name          R92881; 
          from          _1078943_n; 
          to            R92881_n; 
          phases        ABCN; 
          current_limit 0; 
          mean_replacement_time 1.0 ; 
          repair_dist_type      NONE; 
          } 

object node {name   R92881_n; phases ABCN; nominal_voltage 7200;  } 

object underground_line {
          name   _1078944; 
          from   R92881_n; 
          to     _1078944_n; 
          phases ABCN; 
          length 700; 
          configuration SystemCnstDefaultABC__4/0 URD UG Conductor; 
          } 

object node {name   _1078944_n; phases ABCN; nominal_voltage 7200;  } 

object underground_line {
          name   _1084979; 
          from   _1078944_n; 
          to     _1084979_n; 
          phases ABCN; 
          length 787; 
          configuration SystemCnstDefaultABC__4/0 URD UG Conductor; 
          } 

object node {name   _1084979_n; phases ABCN; nominal_voltage 7200;  } 

object switch {
          name   _102517-B; 
          from   _1084979_n; 
          to     _1151939_n; 
          phases ABCN; 
          status OPEN; 
          } 

object transformer {
          name   _447781; 
          from   _1078944_n; 
          to     _447781_n; 
          phases ABCN; 
          configuration WYE_WYE-_75-UG3Ph-7200To120V; 
          } 

object node {name   _447781_n; phases ABCN; nominal_voltage 120;  } 

object underground_line {
          name   _1100789; 
          from   _1100792_n; 