clock {
	timezone PST+8PDT;
	starttime '2000-01-01 00:00:00';
	stoptime '2000-01-01 00:00:00';
};

#set minimum_timestep=60;
#set profiler=1;
#set relax_naming_rules=1;
module generators;
module tape;
module residential {
	implicit_enduses NONE;
};

module powerflow {
	solver_method NR;
	NR_iteration_limit 50;
};

object node {
	phases ABCN;
	name ARBOR LAKE;
	bustype SWING;
	longitude 174.153420871;
	nominal_voltage 7200.0;
	latitude 619.113798394;
};

object underground_line {
	phases ACB;
	from ARBOR LAKE;
	name 1069647;
	longitude 174.890578208;
	to nodeD956171069647;
	length 19;
	latitude 617.056222363;
	configuration 1151929-LINECONFIG;
};

object fuse {
	phases ACB;
	from nodeD956171069647;
	name D95617;
	current_limit 9999.0 A;
	longitude 174.890578208;
	to node1077548D95617;
	latitude 617.056222363;
};

object underground_line {
	phases ACB;
	from node1077548D95617;
	name 1077548;
	longitude 174.890578208;
	to node11005201077548;
	length 10;
	latitude 616.298168035;
	configuration 1151929-LINECONFIG;
};

object underground_line {
	phases ACB;
	from node11005201077548;
	name 1100520;
	to node95881-B1100520;
	longitude 196.452430316;
	length 308;
	latitude 622.579189604;
	configuration 1151929-LINECONFIG;
};

object switch {
	status CLOSED;
	phases ACB;
	from node95881-B1100520;
	name 95881-B;
	longitude 196.452430316;
	to node95881-A95881-B;
	latitude 622.579189604;
};

object switch {
	status CLOSED;
	phases ACB;
	from node95881-A95881-B;
	name 95881-A;
	longitude 196.452430316;
	to node110052195881-A;
	latitude 622.579189604;
};

object underground_line {
	phases ACB;
	from node110052195881-A;
	name 1100521;
	longitude 196.821008984;
	to node10740441100521;
	length 10;
	latitude 622.362602653;
	configuration 1151929-LINECONFIG;
};

object underground_line {
	phases ACB;
	from node10740441100521;
	name 1074044;
	longitude 197.742455655;
	to node94914-A1074044;
	length 28;
	latitude 625.178233011;
	configuration 1151929-LINECONFIG;
};

object underground_line {
	phases ACB;
	from node10740441100521;
	name 1074052;
	longitude 197.92674499;
	to node95154-A1074052;
	length 25;
	latitude 619.763559246;
	configuration 1151929-LINECONFIG;
};

object underground_line {
	phases ACB;
	from node10740441100521;
	name 1100523;
	to node96360-B1100523;
	longitude 197.373876987;
	length 10;
	latitude 622.037722227;
	configuration 1151929-LINECONFIG;
};

object switch {
	status CLOSED;
	phases ACB;
	from node96360-B1100523;
	name 96360-B;
	longitude 197.373876987;
	to node96360-A96360-B;
	latitude 622.037722227;
};

object switch {
	status CLOSED;
	phases ACB;
	from node96360-A96360-B;
	name 96360-A;
	longitude 197.373876987;
	to node110052496360-A;
	latitude 622.037722227;
};

object underground_line {
	phases ACB;
	from node110052496360-A;
	name 1100524;
	longitude 363.971435153;
	to node95667-B1100524;
	length 1230;
	latitude 649.869145384;
	configuration 1151929-LINECONFIG;
};

object switch {
	status CLOSED;
	phases ACB;
	from node95667-B1100524;
	name 95667-B;
	longitude 363.971435153;
	to node95667-A95667-B;
	latitude 649.869145384;
};

object switch {
	status CLOSED;
	phases ACB;
	from node95667-A95667-B;
	name 95667-A;
	longitude 363.971435153;
	to node110005995667-A;
	latitude 649.869145384;
};

object underground_line {
	phases ACB;
	from node110005995667-A;
	name 1100059;
	longitude 364.524303156;
	to node11000811100059;
	length 10;
	latitude 649.652558433;
	configuration 1151929-LINECONFIG;
};

object underground_line {
	phases ACB;
	from node11000811100059;
	name 1100081;
	longitude 364.340013822;
	to node96224-B1100081;
	length 10;
	latitude 650.085732335;
	configuration 1151929-LINECONFIG;
};

object switch {
	status CLOSED;
	phases ACB;
	from node96224-B1100081;
	name 96224-B;
	longitude 364.340013822;
	to node96224-A96224-B;
	latitude 650.085732335;
};

object switch {
	status CLOSED;
	phases ACB;
	from node96224-A96224-B;
	name 96224-A;
	longitude 364.340013822;
	to node110075296224-A;
	latitude 650.085732335;
};

object underground_line {
	phases ACB;
	from node110075296224-A;
	name 1100752;
	longitude 668.048836674;
	to node95990-B1100752;
	length 1676;
	latitude 666.979514484;
	configuration 1151929-LINECONFIG;
};

object switch {
	status CLOSED;
	phases ACB;
	from node95990-B1100752;
	name 95990-B;
	longitude 668.048836674;
	to node95990-A95990-B;
	latitude 666.979514484;
};

object switch {
	status CLOSED;
	phases ACB;
	from node95990-A95990-B;
	name 95990-A;
	longitude 668.048836674;
	to node110075395990-A;
	latitude 666.979514484;
};

object underground_line {
	phases ACB;
	from node110075395990-A;
	name 1100753;
	longitude 668.417415342;
	to node11007551100753;
	length 10;
	latitude 666.979514484;
	configuration 1151929-LINECONFIG;
};

object underground_line {
	phases ACB;
	from node11007551100753;
	name 1100755;
	longitude 670.628887353;
	to nodeR963981100755;
	length 21;
	latitude 665.138525404;
	configuration 1094591-LINECONFIG;
};

object fuse {
	phases ACB;
	from nodeR963981100755;
	name R96398;
	current_limit 9999.0 A;
	longitude 670.628887353;
	to node1100754R96398;
	latitude 665.138525404;
};

object underground_line {
	phases ACB;
	from node1100754R96398;
	name 1100754;
	to node10944981100754;
	longitude 676.894724718;
	length 501;
	latitude 617.056222363;
	configuration 1094591-LINECONFIG;
};

object underground_line {
	phases ACB;
	from node10944981100754;
	name 1094498;
	longitude 637.456807187;
	to node10944971094498;
	length 901;
	latitude 542.442017868;
	configuration 1094591-LINECONFIG;
};

object underground_line {
	phases ACB;
	from node10944971094498;
	name 1094497;
	longitude 571.29693619;
	to node10944951094497;
	length 785;
	latitude 487.104051981;
	configuration 1094591-LINECONFIG;
};

object underground_line {
	phases ACB;
	from node10944951094497;
	name 1094495;
	longitude 543.837825386;
	to node11022481094495;
	length 357;
	latitude 463.06290046;
	configuration 1094591-LINECONFIG;
};

object underground_line {
	phases ACB;
	from node11022481094495;
	name 1102248;
	longitude 538.862013361;
	to node96061-A1102248;
	length 185;
	latitude 457.215052793;
	configuration 1094591-LINECONFIG;
};

object underground_line {
	phases ACB;
	from node11007551100753;
	name 1100758;
	longitude 666.390232665;
	to nodeR963991100758;
	length 17;
	latitude 665.788286256;
	configuration 1094591-LINECONFIG;
};

object fuse {
	phases ACB;
	from nodeR963991100758;
	name R96399;
	current_limit 9999.0 A;
	longitude 666.390232665;
	to node1100756R96399;
	latitude 665.788286256;
};

object underground_line {
	phases ACB;
	from node1100756R96399;
	name 1100756;
	longitude 666.758811334;
	to node10946511100756;
	length 44;
	latitude 661.131666817;
	configuration 1094591-LINECONFIG;
};

object underground_line {
	phases ACB;
	from node10946511100756;
	name 1094651;
	to node10945921094651;
	longitude 555.816632112;
	length 1262;
	latitude 595.722407725;
	configuration 1094591-LINECONFIG;
};

object underground_line {
	phases ACB;
	from node10945921094651;
	name 1094592;
	longitude 522.275973278;
	to node10945911094592;
	length 671;
	latitude 654.525764823;
	configuration 1094591-LINECONFIG;
};

object line_configuration {
	name 1094591-LINECONFIG;
	conductor_A 1085565-LINECONFIGunderground_line_conductor57303;
	spacing 1085257-LINESPACING;
	conductor_C 1085565-LINECONFIGunderground_line_conductor57303;
	conductor_B 1085565-LINECONFIGunderground_line_conductor57303;
};

object underground_line {
	phases ACB;
	from node10945911094592;
	name 1094591;
	longitude 506.611379866;
	to node11013091094591;
	length 110;
	latitude 651.926721415;
	configuration 1094591-LINECONFIG;
};

object underground_line {
	phases ACB;
	from node11013091094591;
	name 1101309;
	longitude 479.152269062;
	to node11012991101309;
	length 167;
	latitude 652.359895316;
	configuration 1094591-LINECONFIG;
};

object underground_line {
	phases ACB;
	from node11012991101309;
	name 1101299;
	longitude 405.989403363;
	to node95259-A1101299;
	length 510;
	latitude 638.606623951;
	configuration 1094591-LINECONFIG;
};

object underground_line {
	phases ACB;
	from node11007551100753;
	name 1104457;
	longitude 669.338862013;
	to node98664-B1104457;
	length 10;
	latitude 667.954155762;
	configuration 1151929-LINECONFIG;
};

object switch {
	status CLOSED;
	phases ACB;
	from node98664-B1104457;
	name 98664-B;
	longitude 669.338862013;
	to node98664-A98664-B;
	latitude 667.954155762;
};

object switch {
	status CLOSED;
	phases ACB;
	from node98664-A98664-B;
	name 98664-A;
	longitude 669.338862013;
	to node110445598664-A;
	latitude 667.954155762;
};

object underground_line {
	phases ACB;
	from node110445598664-A;
	name 1104455;
	longitude 720.387007602;
	to node102921-A1104455;
	length 349;
	latitude 677.375688115;
	configuration 1151929-LINECONFIG;
};

object underground_line {
	phases ACB;
	from node11000811100059;
	name 1100121;
	longitude 364.892881824;
	to nodeR962031100121;
	length 10;
	latitude 649.435971483;
	configuration 1094591-LINECONFIG;
};

object fuse {
	phases ACB;
	from nodeR962031100121;
	name R96203;
	current_limit 9999.0 A;
	longitude 364.892881824;
	to node1100122R96203;
	latitude 649.435971483;
};

object underground_line {
	phases ACB;
	from node1100122R96203;
	name 1100122;
	longitude 365.077171159;
	to node10726521100122;
	length 10;
	latitude 649.327678007;
	configuration 1094591-LINECONFIG;
};

object underground_line {
	phases ACB;
	from node10726521100122;
	name 1100080;
	longitude 389.587652615;
	to node10945751100080;
	length 199;
	latitude 649.977438859;
	configuration 1094591-LINECONFIG;
};

object underground_line {
	phases ACB;
	from node10945751100080;
	name 1094575;
	longitude 398.249251325;
	to node10942471094575;
	length 224;
	latitude 635.249526216;
	configuration 1094591-LINECONFIG;
};

object underground_line {
	phases ACB;
	from node10942471094575;
	name 1094247;
	longitude 405.989403363;
	to node95259-B1094247;
	length 68;
	latitude 638.606623951;
	configuration 1094591-LINECONFIG;
};

object underground_line {
	phases ACB;
	from node11000811100059;
	name 1100134;
	longitude 363.049988482;
	to nodeR962041100134;
	length 10;
	latitude 650.085732335;
	configuration 1094591-LINECONFIG;
};

object fuse {
	phases ACB;
	from nodeR962041100134;
	name R96204;
	current_limit 9999.0 A;
	longitude 363.049988482;
	to node1100133R96204;
	latitude 650.085732335;
};

object underground_line {
	phases ACB;
	from node1100133R96204;
	name 1100133;
	to node11549841100133;
	longitude 342.041004377;
	length 324;
	latitude 626.910928617;
	configuration 1094591-LINECONFIG;
};

object underground_line {
	phases ACB;
	from node11549841100133;
	name 1154984;
	longitude 356.415572449;
	to node11549831154984;
	length 80;
	latitude 626.36946124;
	configuration 1094591-LINECONFIG;
};

object underground_line {
	phases ACB;
	from node11549831154984;
	name 1154983;
	longitude 342.041004377;
	to node11549791154983;
	length 81;
	latitude 625.069939536;
	configuration 1094591-LINECONFIG;
};

object underground_line {
	phases ACB;
	from node11549791154983;
	name 1154979;
	longitude 353.282653766;
	to node10942501154979;
	length 305;
	latitude 598.104864182;
	configuration 1094591-LINECONFIG;
};

object underground_line {
	phases ACB;
	from node10942501154979;
	name 1094250;
	longitude 345.542501728;
	to node10942491094250;
	length 405;
	latitude 562.692897753;
	configuration 1094591-LINECONFIG;
};

object underground_line {
	phases ACB;
	from node10942491094250;
	name 1094249;
	longitude 353.098364432;
	to node10944761094249;
	length 399;
	latitude 531.179496435;
	configuration 1094591-LINECONFIG;
};

object underground_line {
	phases ACB;
	from node10944761094249;
	name 1094476;
	longitude 393.826307302;
	to node10944751094476;
	length 221;
	latitude 529.44680083;
	configuration 1094591-LINECONFIG;
};

object underground_line {
	phases ACB;
	from node10944751094476;
	name 1094475;
	longitude 431.052752822;
	to node11163741094475;
	length 204;
	latitude 532.262431189;
	configuration 1094591-LINECONFIG;
};

object underground_line {
	phases ACB;
	from node11163741094475;
	name 1116374;
	to node101341-B1116374;
	longitude 436.58143285;
	length 30;
	latitude 532.803898565;
	configuration 1094591-LINECONFIG;
};

object underground_line {
	phases ACB;
	from ARBOR LAKE;
	name 1069649;
	to nodeF956161069649;
	longitude 173.2319742;
	length 19;
	latitude 617.056222363;
	configuration 1151929-LINECONFIG;
};

object fuse {
	phases ACB;
	from nodeF956161069649;
	name F95616;
	current_limit 9999.0 A;
	longitude 173.2319742;
	to node1077546F95616;
	latitude 617.056222363;
};

object underground_line {
	phases ACB;
	from node1077546F95616;
	name 1077546;
	longitude 173.2319742;
	to node10775471077546;
	length 10;
	latitude 616.298168035;
	configuration 1151929-LINECONFIG;
};

object underground_line {
	phases ACB;
	from node10775471077546;
	name 1077547;
	longitude 173.416263534;
	to node11005901077547;
	length 10;
	latitude 615.648407183;
	configuration 1151929-LINECONFIG;
};

object underground_line {
	phases ACB;
	from node11005901077547;
	name 1100590;
	longitude 195.715272979;
	to node96361-A1100590;
	length 274;
	latitude 617.922570165;
	configuration 1151929-LINECONFIG;
};

object underground_line {
	phases ACB;
	from ARBOR LAKE;
	name 1069650;
	longitude 171.757659525;
	to nodeF956151069650;
	length 23;
	latitude 617.056222363;
	configuration 1151929-LINECONFIG;
};

object fuse {
	phases ACB;
	from nodeF956151069650;
	name F95615;
	current_limit 9999.0 A;
	longitude 171.757659525;
	to node1077544F95615;
	latitude 617.056222363;
};

object underground_line {
	phases ACB;
	from node1077544F95615;
	name 1077544;
	to node11005921077544;
	longitude 171.757659525;
	length 10;
	latitude 616.18987456;
	configuration 1151929-LINECONFIG;
};

object underground_line {
	phases ACB;
	from node11005921077544;
	name 1100592;
	longitude 197.373876987;
	to node95883-B1100592;
	length 259;
	latitude 611.966429023;
	configuration 1151929-LINECONFIG;
};

object switch {
	status CLOSED;
	phases ACB;
	from node95883-B1100592;
	name 95883-B;
	longitude 197.373876987;
	to node95883-A95883-B;
	latitude 611.966429023;
};

object switch {
	status CLOSED;
	phases ACB;
	from node95883-A95883-B;
	name 95883-A;
	longitude 197.373876987;
	to node110059395883-A;
	latitude 611.966429023;
};

object underground_line {
	phases ACB;
	from node110059395883-A;
	name 1100593;
	longitude 197.92674499;
	to node10740461100593;
	length 10;
	latitude 612.183015973;
	configuration 1151929-LINECONFIG;
};

object underground_line {
	phases ACB;
	from node10740461100593;
	name 1074046;
	longitude 196.268140981;
	to node94920-B1074046;
	length 24;
	latitude 614.240592004;
	configuration 1151929-LINECONFIG;
};

object underground_line {
	phases ACB;
	from node10740461100593;
	name 1074047;
	longitude 198.848191661;
	to node94921-B1074047;
	length 25;
	latitude 609.583972566;
	configuration 1151929-LINECONFIG;
};

object underground_line {
	phases ACB;
	from node10740461100593;
	name 1100594;
	longitude 198.295323658;
	to node96362-B1100594;
	length 10;
	latitude 612.399602924;
	configuration 1151929-LINECONFIG;
};

object switch {
	status CLOSED;
	phases ACB;
	from node96362-B1100594;
	name 96362-B;
	longitude 198.295323658;
	to node96362-A96362-B;
	latitude 612.399602924;
};

object switch {
	status CLOSED;
	phases ACB;
	from node96362-A96362-B;
	name 96362-A;
	longitude 198.295323658;
	to node110059596362-A;
	latitude 612.399602924;
};

object underground_line {
	phases ACB;
	from node110059596362-A;
	name 1100595;
	longitude 341.119557706;
	to node95690-B1100595;
	length 3552;
	latitude 362.891435791;
	configuration 1151929-LINECONFIG;
};

object switch {
	status CLOSED;
	phases ACB;
	from node95690-B1100595;
	name 95690-B;
	longitude 341.119557706;
	to node95690-A95690-B;
	latitude 362.891435791;
};

object switch {
	status CLOSED;
	phases ACB;
	from node95690-A95690-B;
	name 95690-A;
	longitude 341.119557706;
	to node110016795690-A;
	latitude 362.891435791;
};

object underground_line {
	phases ACB;
	from node110016795690-A;
	name 1100167;
	longitude 341.30384704;
	to node10757451100167;
	length 10;
	latitude 362.67484884;
	configuration 1151929-LINECONFIG;
};

object underground_line {
	phases ACB;
	from node10757451100167;
	name 1075745;
	to node95124-A1075745;
	longitude 344.252476388;
	length 61;
	latitude 367.76464218;
	configuration 1100101-LINECONFIG;
};

object underground_line {
	phases ACB;
	from node10757451100167;
	name 1078947;
	longitude 343.883897719;
	to nodeR928831078947;
	length 23;
	latitude 360.725566285;
	configuration 1085257-LINECONFIG;
};

object fuse {
	phases ACB;
	from nodeR928831078947;
	name R92883;
	current_limit 9999.0 A;
	longitude 343.883897719;
	to node1091470R92883;
	latitude 360.725566285;
};

object underground_line {
	phases ACB;
	from node1091470R92883;
	name 1091470;
	longitude 358.258465791;
	to node10914711091470;
	length 104;
	latitude 367.439761754;
	configuration 1085257-LINECONFIG;
};

object underground_line {
	phases ACB;
	from node10914711091470;
	name 1091471;
	longitude 419.995392767;
	to node10914581091471;
	length 803;
	latitude 339.066871221;
	configuration 1085257-LINECONFIG;
};

object underground_line {
	phases ACB;
	from node10914581091471;
	name 1091458;
	longitude 420.916839438;
	to node10914571091458;
	length 488;
	latitude 297.157296273;
	configuration 1085257-LINECONFIG;
};

object underground_line {
	phases ACB;
	from node10914571091458;
	name 1091457;
	longitude 407.095139369;
	to node95130-A1091457;
	length 112;
	latitude 292.284089884;
	configuration 1085257-LINECONFIG;
};

object underground_line {
	phases ACB;
	from node10757451100167;
	name 1100195;
	to node96240-B1100195;
	longitude 341.119557706;
	length 10;
	latitude 362.349968414;
	configuration 1100101-LINECONFIG;
};

object switch {
	status CLOSED;
	phases ACB;
	from node96240-B1100195;
	name 96240-B;
	longitude 341.119557706;
	to node96240-A96240-B;
	latitude 362.349968414;
};

object switch {
	status CLOSED;
	phases ACB;
	from node96240-A96240-B;
	name 96240-A;
	longitude 341.119557706;
	to node110061196240-A;
	latitude 362.349968414;
};

object underground_line {
	phases ACB;
	from node110061196240-A;
	name 1100611;
	longitude 367.28864317;
	to node95912-B1100611;
	length 1149;
	latitude 241.386156484;
	configuration 1100101-LINECONFIG;
};

object switch {
	status CLOSED;
	phases ACB;
	from node95912-B1100611;
	name 95912-B;
	longitude 367.28864317;
	to node95912-A95912-B;
	latitude 241.386156484;
};

object switch {
	status CLOSED;
	phases ACB;
	from node95912-A95912-B;
	name 95912-A;
	longitude 367.28864317;
	to node110060495912-A;
	latitude 241.386156484;
};

object underground_line {
	phases ACB;
	from node110060495912-A;
	name 1100604;
	longitude 367.657221838;
	to node10808451100604;
	length 10;
	latitude 241.061276058;
	configuration 1100101-LINECONFIG;
};

object underground_line {
	phases B;
	from node10808451100604;
	name 1080845;
	longitude 370.237272518;
	to nodeD938711080845;
	length 21.7276;
	latitude 239.328580453;
	configuration 1075245-LINECONFIG;
};

object fuse {
	phases B;
	from nodeD938711080845;
	name D93871;
	current_limit 9999.0 A;
	longitude 370.237272518;
	to node1080846D93871;
	latitude 239.328580453;
};

object underground_line {
	phases B;
	from node1080846D93871;
	name 1080846;
	longitude 371.895876526;
	to node4403841080846;
	length 60.6879;
	latitude 232.830971934;
	configuration 1075245-LINECONFIG;
};

object underground_line {
	phases ACB;
	from node10808451100604;
	name 1100615;
	longitude 365.99861783;
	to node96366-B1100615;
	length 10;
	latitude 241.71103691;
	configuration 1100101-LINECONFIG;
};

object switch {
	status CLOSED;
	phases ACB;
	from node96366-B1100615;
	name 96366-B;
	longitude 365.99861783;
	to node96366-A96366-B;
	latitude 241.71103691;
};

object switch {
	status CLOSED;
	phases ACB;
	from node96366-A96366-B;
	name 96366-A;
	longitude 365.99861783;
	to node110061496366-A;
	latitude 241.71103691;
};

object underground_line {
	phases ACB;
	from node110061496366-A;
	name 1100614;
	longitude 363.234277816;
	to node95646-B1100614;
	length 571;
	latitude 180.850103781;
	configuration 1100101-LINECONFIG;
};

object switch {
	status CLOSED;
	phases ACB;
	from node95646-B1100614;
	name 95646-B;
	longitude 363.234277816;
	to node95646-A95646-B;
	latitude 180.850103781;
};

object switch {
	status CLOSED;
	phases ACB;
	from node95646-A95646-B;
	name 95646-A;
	longitude 363.234277816;
	to node110010295646-A;
	latitude 180.850103781;
};

object underground_line {
	phases ACB;
	from node110010295646-A;
	name 1100102;
	longitude 363.602856485;
	to node10808471100102;
	length 10;
	latitude 180.741810306;
	configuration 1100101-LINECONFIG;
};

object underground_line {
	phases ACB;
	from node10808471100102;
	name 1080847;
	longitude 365.445749827;
	to nodeR938721080847;
	length 21;
	latitude 182.799386337;
	configuration 1085257-LINECONFIG;
};

object fuse {
	phases ACB;
	from nodeR938721080847;
	name R93872;
	current_limit 9999.0 A;
	longitude 365.445749827;
	to node1091454R93872;
	latitude 182.799386337;
};

object underground_line {
	phases ACB;
	from node1091454R93872;
	name 1091454;
	longitude 424.602626123;
	to node10914551091454;
	length 537;
	latitude 206.732244382;
	configuration 1085257-LINECONFIG;
};

object underground_line {
	phases ACB;
	from node10914551091454;
	name 1091455;
	longitude 423.496890118;
	to node10914561091455;
	length 366;
	latitude 242.577384713;
	configuration 1085257-LINECONFIG;
};

object underground_line {
	phases ACB;
	from node10914561091455;
	name 1091456;
	longitude 407.095139369;
	to node95130-B1091456;
	length 487;
	latitude 292.284089884;
	configuration 1085257-LINECONFIG;
};

object underground_line {
	phases ACB;
	from node10808471100102;
	name 1100105;
	longitude 363.234277816;
	to node96212-B1100105;
	length 10;
	latitude 180.741810306;
	configuration 1100101-LINECONFIG;
};

object switch {
	status CLOSED;
	phases ACB;
	from node96212-B1100105;
	name 96212-B;
	longitude 363.234277816;
	to node96212-A96212-B;
	latitude 180.741810306;
};

object switch {
	status CLOSED;
	phases ACB;
	from node96212-A96212-B;
	name 96212-A;
	longitude 363.234277816;
	to node110031696212-A;
	latitude 180.741810306;
};

object underground_line {
	phases ACB;
	from node110031696212-A;
	name 1100316;
	longitude 350.702603087;
	to node95745-B1100316;
	length 554;
	latitude 124.320909665;
	configuration 1100101-LINECONFIG;
};

object switch {
	status CLOSED;
	phases ACB;
	from node95745-B1100316;
	name 95745-B;
	longitude 350.702603087;
	to node95745-A95745-B;
	latitude 124.320909665;
};

object switch {
	status CLOSED;
	phases ACB;
	from node95745-A95745-B;
	name 95745-A;
	longitude 350.702603087;
	to node110031595745-A;
	latitude 124.320909665;
};

object underground_line {
	phases ACB;
	from node110031595745-A;
	name 1100315;
	longitude 352.361207095;
	to node10789641100315;
	length 13;
	latitude 123.346268387;
	configuration 1100101-LINECONFIG;
};

object underground_line {
	phases ACB;
	from node10789641100315;
	name 1078964;
	longitude 356.968440452;
	to nodeR928911078964;
	length 30;
	latitude 125.078963992;
	configuration 1085257-LINECONFIG;
};

object fuse {
	phases ACB;
	from nodeR928911078964;
	name R92891;
	current_limit 9999.0 A;
	longitude 356.968440452;
	to node1085255R92891;
	latitude 125.078963992;
};

object underground_line {
	phases ACB;
	from node1085255R92891;
	name 1085255;
	to node10852571085255;
	longitude 390.69338862;
	length 676;
	latitude 171.428571429;
	configuration 1085257-LINECONFIG;
};

object line_configuration {
	name 1085257-LINECONFIG;
	spacing 1085257-LINESPACING;
	conductor_A 1085257-LINECONFIGunderground_line_conductor24505;
	conductor_C 1085257-LINECONFIGunderground_line_conductor24505;
	conductor_B 1085257-LINECONFIGunderground_line_conductor24505;
};

object line_spacing {
	distance_AN 0.0;
	name 1085257-LINESPACING;
	distance_CN 0.0;
	distance_BC 4.472136;
	distance_AB 4.472136;
	distance_AC 8.000000;
	distance_BN 0.0;
};

object underground_line_conductor {
	conductor_gmr 0.017;
	conductor_resistance 0.56496;
	shield_resistance 0.000000;
	neutral_gmr 0.0317574;
	neutral_strands 11;
	conductor_diameter 0.563000;
	name 1085257-LINECONFIGunderground_line_conductor24505;
	insulation_relative_permitivitty 2.4;
	outer_diameter 1.359996;
	neutral_resistance 1.2672;
	neutral_diameter 0.420036;
	shield_gmr 0.000000;
};

object underground_line {
	phases ACB;
	from node10852571085255;
	name 1085257;
	longitude 517.853029256;
	to node10852561085257;
	length 1031;
	latitude 145.221550402;
	configuration 1085257-LINECONFIG;
};

object underground_line {
	phases ACB;
	from node10852561085257;
	name 1085256;
	longitude 513.2457959;
	to node95160-B1085256;
	length 68;
	latitude 138.399061457;
	configuration 1085257-LINECONFIG;
};

object underground_line {
	phases ACB;
	from node10789641100315;
	name 1100318;
	longitude 351.992628427;
	to node96280-B1100318;
	length 10;
	latitude 123.237974912;
	configuration 1100101-LINECONFIG;
};

object switch {
	status CLOSED;
	phases ACB;
	from node96280-B1100318;
	name 96280-B;
	longitude 351.992628427;
	to node96280-A96280-B;
	latitude 123.237974912;
};

object switch {
	status CLOSED;
	phases ACB;
	from node96280-A96280-B;
	name 96280-A;
	longitude 351.992628427;
	to node110031796280-A;
	latitude 123.237974912;
};

object underground_line {
	phases ACB;
	from node110031796280-A;
	name 1100317;
	longitude 333.379405667;
	to node95644-B1100317;
	length 380;
	latitude 87.2845411064;
	configuration 1100101-LINECONFIG;
};

object switch {
	status CLOSED;
	phases ACB;
	from node95644-B1100317;
	name 95644-B;
	longitude 333.379405667;
	to node95644-A95644-B;
	latitude 87.2845411064;
};

object switch {
	status CLOSED;
	phases ACB;
	from node95644-A95644-B;
	name 95644-A;
	longitude 333.379405667;
	to node110008895644-A;
	latitude 87.2845411064;
};

object underground_line {
	phases ACB;
	from node110008895644-A;
	name 1100088;
	longitude 333.563695001;
	to node10811831100088;
	length 10;
	latitude 87.1762476311;
	configuration 1100101-LINECONFIG;
};

object underground_line {
	phases ACB;
	from node10811831100088;
	name 1081183;
	to nodeR940691081183;
	longitude 336.143745681;
	length 28;
	latitude 84.5772042234;
	configuration 1085257-LINECONFIG;
};

object fuse {
	phases ACB;
	from nodeR940691081183;
	name R94069;
	current_limit 9999.0 A;
	longitude 336.143745681;
	to node1085262R94069;
	latitude 84.5772042234;
};

object underground_line {
	phases ACB;
	from node1085262R94069;
	name 1085262;
	longitude 335.038009675;
	to node10852641085262;
	length 84.3471;
	latitude 75.4805522967;
	configuration 1085257-LINECONFIG;
};

object underground_line {
	phases ACB;
	from node10852641085262;
	name 1085264;
	longitude 440.0829302;
	to node10852631085264;
	length 697;
	latitude 92.0494540204;
	configuration 1085257-LINECONFIG;
};

object underground_line {
	phases ACB;
	from node10852631085264;
	name 1085263;
	longitude 469.200645013;
	to node94772-B1085263;
	length 294;
	latitude 77.2132479018;
	configuration 1085257-LINECONFIG;
};

object underground_line {
	phases ACB;
	from node10811831100088;
	name 1081184;
	longitude 336.880903018;
	to nodeR940701081184;
	length 41;
	latitude 91.0748127425;
	configuration 1085257-LINECONFIG;
};

object fuse {
	phases ACB;
	from nodeR940701081184;
	name R94070;
	current_limit 9999.0 A;
	longitude 336.880903018;
	to node1085258R94070;
	latitude 91.0748127425;
};

object underground_line {
	phases ACB;
	from node1085258R94070;
	name 1085258;
	longitude 356.599861783;
	to node10852591085258;
	length 399;
	latitude 106.777366664;
	configuration 1085257-LINECONFIG;
};

object underground_line {
	phases ACB;
	from node10852591085258;
	name 1085259;
	longitude 513.2457959;
	to node95160-A1085259;
	length 991;
	latitude 138.399061457;
	configuration 1085257-LINECONFIG;
};

object underground_line {
	phases ACB;
	from node10811831100088;
	name 1100099;
	to node96210-B1100099;
	longitude 333.379405667;
	length 10;
	latitude 87.0679541558;
	configuration 1100101-LINECONFIG;
};

object switch {
	status CLOSED;
	phases ACB;
	from node96210-B1100099;
	name 96210-B;
	longitude 333.379405667;
	to node96210-A96210-B;
	latitude 87.0679541558;
};

object switch {
	status CLOSED;
	phases ACB;
	from node96210-A96210-B;
	name 96210-A;
	longitude 333.379405667;
	to node110006696210-A;