clock {
timezone PST+8PDT;
stoptime '2000-01-02 00:00:00';
starttime '2000-01-01 00:00:00';
};

#set minimum_timestep=60;
#set profiler=1;
#set relax_naming_rules=1;
module generators;
module tape;
module climate;
module residential {
implicit_enduses NONE;
};

module powerflow {
solver_method FBS;
NR_iteration_limit 50;
};

object climate {
name Climate;
interpolate QUADRATIC;
tmyfile climate.tmy2;
};

object node {
phases 7N;
nominal_voltage 7200.0;
name BURLINGTON;
bustype SWING;
};

object fuse {
phases 7N;
from nodeR118268299;
name R1182;
current_limit 9999.0 A;
to node20944R1182;
};

object load {
phases 2N;
name 62463027798;
parent node62463027798T62463027880;
load_class R;
constant_power_C 0;
constant_power_B 0.698961;
constant_power_A 0;
nominal_voltage 120;
};

object fuse {
phases 1N;
from nodeF894420129;
name F8944;
current_limit 9999.0 A;
to node20130F8944;
};

object load {
phases 1N;
name 62463024800;
parent node62463024800T62463023775;
load_class R;
constant_power_C 0;
constant_power_B 0;
constant_power_A 6.07365;
nominal_voltage 120;
};

object load {
phases 1N;
name 62463023758;
parent node62463024800T62463023775;
load_class R;
constant_power_C 0;
constant_power_B 0;
constant_power_A 0.880641;
nominal_voltage 120;
};

object load {
phases 2N;
name 62463022720;
parent node62463022720T62463022676;
load_class R;
constant_power_C 0;
constant_power_B 4.54703;
constant_power_A 0;
nominal_voltage 120;
};

object load {
phases 3N;
name 62463021692;
parent node62463021692T62463021663;
load_class R;
constant_power_C 0.0731765;
constant_power_B 0;
constant_power_A 0;
nominal_voltage 120;
};

object load {
phases 2N;
name 62463020586;
parent node62463020586T62463020670;
load_class R;
constant_power_C 0;
constant_power_B 4.16349;
constant_power_A 0;
nominal_voltage 120;
};

object load {
phases 1N;
name 62463019437;
parent node62463019437T62463019414;
load_class R;
constant_power_C 0;
constant_power_B 0;
constant_power_A 5.57655;
nominal_voltage 120;
};

object fuse {
phases 3N;
from nodeF757319850;
name F7573;
current_limit 9999.0 A;
to node19851F7573;
};

object load {
phases 3N;
name 62463019498;
parent node62463019498T62463019467;
load_class R;
constant_power_C 1.51904;
constant_power_B 0;
constant_power_A 0;
nominal_voltage 120;
};

object fuse {
phases 3N;
from nodeF794419848;
name F7944;
current_limit 9999.0 A;
to node19849F7944;
};

object load {
phases 3N;
name 62463022298;
parent node62463022298T62463022289;
load_class R;
constant_power_C 1.6553;
constant_power_B 0;
constant_power_A 0;
nominal_voltage 120;
};

object load {
phases 3N;
name 62463025237;
parent node62463025237T62463024257;
load_class R;
constant_power_C 10.1337;
constant_power_B 0;
constant_power_A 0;
nominal_voltage 120;
};

object fuse {
phases 1N;
from nodeF758219837;
name F7582;
current_limit 9999.0 A;
to node19770F7582;
};

object load {
phases 1N;
name 62463018503;
parent node62463018503T62463017479;
load_class R;
constant_power_C 0;
constant_power_B 0;
constant_power_A 6.3386;
nominal_voltage 120;
};

object load {
phases 1N;
name 62463017349;
parent node62463017349T62463017451;
load_class R;
constant_power_C 0;
constant_power_B 0;
constant_power_A 0.0605598;
nominal_voltage 120;
};

object load {
phases 1N;
name 62463017481;
parent node62463017349T62463017451;
load_class R;
constant_power_C 0;
constant_power_B 0;
constant_power_A 3.48976;
nominal_voltage 120;
};

object load {
phases 1N;
name 62463016405;
parent node62463016405T62463015557;
load_class R;
constant_power_C 0;
constant_power_B 0;
constant_power_A 4.20638;
nominal_voltage 120;
};

object load {
phases 1N;
name 62463014593;
parent node62463016405T62463015557;
load_class R;
constant_power_C 0;
constant_power_B 0;
constant_power_A 5.09964;
nominal_voltage 120;
};

object load {
phases 1N;
name 62463013691;
parent node62463013691T62463013576;
load_class R;
constant_power_C 0;
constant_power_B 0;
constant_power_A 0.156446;
nominal_voltage 120;
};

object load {
phases 1N;
name 62463012543;
parent node62463012543T62463012540;
load_class R;
constant_power_C 0;
constant_power_B 0;
constant_power_A 7.22428;
nominal_voltage 120;
};

object load {
phases 1N;
name 62463014628;
parent node62463014628T62463014734;
load_class R;
constant_power_C 0;
constant_power_B 0;
constant_power_A 1.36007;
nominal_voltage 120;
};

object load {
phases 1N;
name 62463014757;
parent node62463014628T62463014734;
load_class R;
constant_power_C 0;
constant_power_B 0;
constant_power_A 4.81198;
nominal_voltage 120;
};

object load {
phases 1N;
name 62463013707;
parent node62463013707T62463013737;
load_class R;
constant_power_C 0;
constant_power_B 0;
constant_power_A 3.67901;
nominal_voltage 120;
};

object load {
phases 1N;
name 62463016900;
parent node62463016900T62463016837;
load_class R;
constant_power_C 0;
constant_power_B 0;
constant_power_A 6.36635;
nominal_voltage 120;
};

object load {
phases 1N;
name 62474195011;
parent node62474195011T62474196023;
load_class R;
constant_power_C 0;
constant_power_B 0;
constant_power_A 4.97095;
nominal_voltage 120;
};

object load {
phases 1N;
name 62463016996;
parent node62474195011T62474196023;
load_class R;
constant_power_C 0;
constant_power_B 0;
constant_power_A 7.02242;
nominal_voltage 120;
};

object load {
phases 1N;
name 62474195151;
parent node62474195151T62474196103;
load_class R;
constant_power_C 0;
constant_power_B 0;
constant_power_A 5.79356;
nominal_voltage 120;
};

object load {
phases 1N;
name 62474195268;
parent node62474195268T62474196213;
load_class R;
constant_power_C 0;
constant_power_B 0;
constant_power_A 5.56393;
nominal_voltage 120;
};

object load {
phases 1N;
name 62474195267;
parent node62474195268T62474196213;
load_class R;
constant_power_C 0;
constant_power_B 0;
constant_power_A 0.116073;
nominal_voltage 120;
};

object load {
phases 1N;
name 62474196319;
parent node62474196319T62474196353;
load_class R;
constant_power_C 0;
constant_power_B 0;
constant_power_A 1.63512;
nominal_voltage 120;
};

object load {
phases 1N;
name 62474197334;
parent node62474196319T62474196353;
load_class R;
constant_power_C 0;
constant_power_B 0;
constant_power_A 9.00323;
nominal_voltage 120;
};

object load {
phases 1N;
name 62474197221;
parent node62474197221T62474197215;
load_class R;
constant_power_C 0;
constant_power_B 0;
constant_power_A 3.88592;
nominal_voltage 120;
};

object load {
phases 1N;
name 62474196191;
parent node62474196191T62474197105;
load_class R;
constant_power_C 0;
constant_power_B 0;
constant_power_A 4.27956;
nominal_voltage 120;
};

object load {
phases 1N;
name 62463016539;
parent node62463016539T62463016634;
load_class R;
constant_power_C 0;
constant_power_B 0;
constant_power_A 6.54803;
nominal_voltage 120;
};

object load {
phases 2N;
name 62463018228;
parent node62463018228T62463018249;
load_class R;
constant_power_C 0;
constant_power_B 1.20363;
constant_power_A 0;
nominal_voltage 120;
};

object fuse {
phases 3N;
from nodeF581519816;
name F5815;
current_limit 9999.0 A;
to node19563F5815;
};

object load {
phases 3N;
name 62463019285;
parent node62463019285T62463019253;
load_class R;
constant_power_C 4.53442;
constant_power_B 0;
constant_power_A 0;
nominal_voltage 120;
};

object load {
phases 3N;
name 62463021167;
parent node62463021167T62463021200;
load_class R;
constant_power_C 3.75723;
constant_power_B 0;
constant_power_A 0;
nominal_voltage 120;
};

object load {
phases 2N;
name 62463017062;
parent node62463017062T62463017045;
load_class R;
constant_power_C 0;
constant_power_B 2.3366;
constant_power_A 0;
nominal_voltage 120;
};

object fuse {
phases 1N;
from nodeF758519740;
name F7585;
current_limit 9999.0 A;
to node19714F7585;
};

object load {
phases 1N;
name 62463016038;
parent node62463016038T62463016077;
load_class R;
constant_power_C 0;
constant_power_B 0;
constant_power_A 2.39716;
nominal_voltage 120;
};

object load {
phases 1N;
name 62463074975;
parent node62463074975T62463014050;
load_class R;
constant_power_C 0;
constant_power_B 0;
constant_power_A 3.57051;
nominal_voltage 120;
};

object load {
phases 1N;
name 62463016251;
parent node62463016251T62463016201;
load_class R;
constant_power_C 0;
constant_power_B 0;
constant_power_A 2.66968;
nominal_voltage 120;
};

object load {
phases 1N;
name 62463015244;
parent node62463016251T62463016201;
load_class R;
constant_power_C 0;
constant_power_B 0;
constant_power_A 4.69086;
nominal_voltage 120;
};

object fuse {
phases 7N;
from nodeF758658017;
name F7586;
current_limit 9999.0 A;
to node58021F7586;
};

object load {
phases 7N;
name 62463078953;
parent node62463078953T62463078922;
load_class R;
constant_power_C 3.07258;
constant_power_B 3.07258;
constant_power_A 3.07258;
nominal_voltage 120;
};

object load {
phases 2N;
name 62463076992;
parent node62463076992T62463076899;
load_class R;
constant_power_C 0;
constant_power_B 2.38959;
constant_power_A 0;
nominal_voltage 120;
};

object load {
phases 2N;
name 62463076991;
parent node62463076992T62463076899;
load_class R;
constant_power_C 0;
constant_power_B 0.961387;
constant_power_A 0;
nominal_voltage 120;
};

object load {
phases 2N;
name 62463076869;
parent node62463076992T62463076899;
load_class R;
constant_power_C 0;
constant_power_B 5.06179;
constant_power_A 0;
nominal_voltage 120;
};

object fuse {
phases 1N;
from nodeF758719582;
name F7587;
current_limit 9999.0 A;
to node19196F7587;
};

object load {
phases 1N;
name 62463074798;
parent node62463074798T62463074775;
load_class R;
constant_power_C 0;
constant_power_B 0;
constant_power_A 4.83469;
nominal_voltage 120;
};

object load {
phases 1N;
name 62463074872;
parent node62463074798T62463074775;
load_class R;
constant_power_C 0;
constant_power_B 0;
constant_power_A 0.141306;
nominal_voltage 120;
};

object fuse {
phases 3N;
from nodeF758919344;
name F7589;
current_limit 9999.0 A;
to node19353F7589;
};

object load {
phases 3N;
name 62463074197;
parent node62463074197T62463074165;
load_class R;
constant_power_C 2.69744;
constant_power_B 0;
constant_power_A 0;
nominal_voltage 120;
};

object load {
phases 3N;
name 62463073088;
parent node62463073088T62463074161;
load_class R;
constant_power_C 2.17258;
constant_power_B 0;
constant_power_A 0;
nominal_voltage 120;
};

object load {
phases 3N;
name 62463074161;
parent node62463073088T62463074161;
load_class R;
constant_power_C 0.787278;
constant_power_B 0;
constant_power_A 0;
nominal_voltage 120;
};

object load {
phases 3N;
name 62463079175;
parent node62463079175T62463079127;
load_class R;
constant_power_C 2.91444;
constant_power_B 0;
constant_power_A 0;
nominal_voltage 120;
};

object load {
phases 3N;
name 62463139865;
parent node62463139865T62463139950;
load_class R;
constant_power_C 2.54099;
constant_power_B 0;
constant_power_A 0;
nominal_voltage 120;
};

object load {
phases 3N;
name 62463075194;
parent node62463075194T62463075133;
load_class R;
constant_power_C 4.56722;
constant_power_B 0;
constant_power_A 0;
nominal_voltage 120;
};

object load {
phases 2N;
name 62463133906;
parent node62463133906T62463072031;
load_class R;
constant_power_C 0;
constant_power_B 5.29142;
constant_power_A 0;
nominal_voltage 120;
};

object switch {
status CLOSED;
phases 7N;
from nodeSW1250-Bx170925;
name SW1250-Bx1;
to nodeSW1250-Ax1SW1250-Bx1;
};

object switch {
status CLOSED;
phases 7N;
from nodeSW1250-Ax1SW1250-Bx1;
name SW1250-Ax1;
to node19281SW1250-Ax1;
};

object load {
phases 1N;
name 62463130850;
parent node62463130850T62463130794;
load_class R;
constant_power_C 0;
constant_power_B 0;
constant_power_A 4.71862;
nominal_voltage 120;
};

object load {
phases 2N;
name 62463129089;
parent node62463129089T62463129146;
load_class R;
constant_power_C 0;
constant_power_B 0.782231;
constant_power_A 0;
nominal_voltage 120;
};

object load {
phases 2N;
name 62463129140;
parent node62463129089T62463129146;
load_class R;
constant_power_C 0;
constant_power_B 0.0908397;
constant_power_A 0;
nominal_voltage 120;
};

object load {
phases 2N;
name 62463129029;
parent node62463129089T62463129146;
load_class R;
constant_power_C 0;
constant_power_B 0;
constant_power_A 0;
nominal_voltage 120;
};

object fuse {
phases 1N;
from nodeF824519095;
name F8245;
current_limit 9999.0 A;
to node19103F8245;
};

object load {
phases 1N;
name 62463132202;
parent node62463132202T62463131250;
load_class R;
constant_power_C 0;
constant_power_B 0;
constant_power_A 3.78751;
nominal_voltage 120;
};

object load {
phases 1N;
name 62463133761;
parent node62463133761T62463133761;
load_class R;
constant_power_C 0;
constant_power_B 0;
constant_power_A 0;
nominal_voltage 120;
};

object load {
phases 1N;
name 62463134548;
parent node62463134548T62463134578;
load_class R;
constant_power_C 0;
constant_power_B 0;
constant_power_A 2.83622;
nominal_voltage 120;
};

object load {
phases 1N;
name 62463135417;
parent node62463134548T62463134578;
load_class R;
constant_power_C 0;
constant_power_B 0;
constant_power_A 0.0353266;
nominal_voltage 120;
};

object load {
phases 1N;
name 62463132895;
parent node62463132895T62463133818;
load_class R;
constant_power_C 0;
constant_power_B 0;
constant_power_A 5.18796;
nominal_voltage 120;
};

object load {
phases 1N;
name 62463132482;
parent node62463132482T62463132499;
load_class R;
constant_power_C 0;
constant_power_B 0;
constant_power_A 5.81879;
nominal_voltage 120;
};

object load {
phases 1N;
name 62463133009;
parent node62463133009T62463132037;
load_class R;
constant_power_C 0;
constant_power_B 0;
constant_power_A 2.64445;
nominal_voltage 120;
};

object fuse {
phases 1N;
from nodeF500719048;
name F5007;
current_limit 9999.0 A;
to node19049F5007;
};

object load {
phases 1N;
name 62463188749;
parent node62463188749T62463188832;
load_class R;
constant_power_C 0;
constant_power_B 0;
constant_power_A 0;
nominal_voltage 120;
};

object load {
phases 1N;
name 62463188841;
parent node62463188749T62463188832;
load_class R;
constant_power_C 0;
constant_power_B 0;
constant_power_A 3.36864;
nominal_voltage 120;
};

object load {
phases 1N;
name 62463190800;
parent node62463190800T62463189781;
load_class R;
constant_power_C 0;
constant_power_B 0;
constant_power_A 2.62426;
nominal_voltage 120;
};

object load {
phases 1N;
name 62463190694;
parent node62463190694T62463190598;
load_class R;
constant_power_C 0;
constant_power_B 0;
constant_power_A 0.0807464;
nominal_voltage 120;
};

object load {
phases 1N;
name 62463193561;
parent node62463193561T62463193504;
load_class R;
constant_power_C 0;
constant_power_B 0;
constant_power_A 8.12006;
nominal_voltage 120;
};

object load {
phases 1N;
name 62463188901;
parent node62463188901T62463187888;
load_class R;
constant_power_C 0;
constant_power_B 0;
constant_power_A 6.57074;
nominal_voltage 120;
};

object load {
phases 1N;
name 62463186718;
parent node62463186718T62463186742;
load_class R;
constant_power_C 0;
constant_power_B 0;
constant_power_A 0;
nominal_voltage 120;
};

object load {
phases 1N;
name 62463186767;
parent node62463186718T62463186742;
load_class R;
constant_power_C 0;
constant_power_B 0;
constant_power_A 1.69063;
nominal_voltage 120;
};

object load {
phases 1N;
name 62463186398;
parent node62463186398T62463185453;
load_class R;
constant_power_C 0;
constant_power_B 0;
constant_power_A 1.14307;
nominal_voltage 120;
};

object load {
phases 1N;
name 62463186406;
parent node62463186398T62463185453;
load_class R;
constant_power_C 0;
constant_power_B 0;
constant_power_A 5.04918;
nominal_voltage 120;
};

object load {
phases 1N;
name 62463185287;
parent node62463185287T62463186324;
load_class R;
constant_power_C 0;
constant_power_B 0;
constant_power_A 6.71962;
nominal_voltage 120;
};

object load {
phases 1N;
name 62463186691;
parent node62463186691T62463186577;
load_class R;
constant_power_C 0;
constant_power_B 0;
constant_power_A 4.54451;
nominal_voltage 120;
};

object load {
phases 1N;
name 62463189387;
parent node62463189387T62463189482;
load_class R;
constant_power_C 0;
constant_power_B 0;
constant_power_A 2.96491;
nominal_voltage 120;
};

object load {
phases 1N;
name 62463128092;
parent node62463128092T62463188978;
load_class R;
constant_power_C 0;
constant_power_B 0;
constant_power_A 4.74133;
nominal_voltage 120;
};

object fuse {
phases 1N;
from nodeF759118823;
name F7591;
current_limit 9999.0 A;
to node18675F7591;
};

object load {
phases 1N;
name 62463124065;
parent node62463124065T62463124087;
load_class R;
constant_power_C 0;
constant_power_B 0;
constant_power_A 1.70577;
nominal_voltage 120;
};

object load {
phases 2N;
name 62463123162;
parent node62463123162T62463123126;
load_class R;
constant_power_C 0;
constant_power_B 1.49633;
constant_power_A 0;
nominal_voltage 120;
};

object load {
phases 2N;
name 62463123039;
parent node62463123162T62463123126;
load_class R;
constant_power_C 0;
constant_power_B 2.58641;
constant_power_A 0;
nominal_voltage 120;
};

object load {
phases 3N;
name 62463121169;
parent node62463121169T62463121197;
load_class R;
constant_power_C 3.5049;
constant_power_B 0;
constant_power_A 0;
nominal_voltage 120;
};

object load {
phases 1N;
name 62462178343;
parent node62462178343T62462178321;
load_class R;
constant_power_C 0;
constant_power_B 0;
constant_power_A 6.34364;
nominal_voltage 120;
};

object fuse {
phases 3N;
from nodeF759818094;
name F7598;
current_limit 9999.0 A;
to node17654F7598;
};

object load {
phases 3N;
name 62462238928;
parent node62462238928T62462237996;
load_class R;
constant_power_C 3.11126;
constant_power_B 0;
constant_power_A 0;
nominal_voltage 120;
};

object load {
phases 3N;
name 62462238910;
parent node62462238928T62462237996;
load_class R;
constant_power_C 0.507189;
constant_power_B 0;
constant_power_A 0;
nominal_voltage 120;
};

object load {
phases 3N;
name 62462237962;
parent node62462237962T62462237964;
load_class R;
constant_power_C 0.0454199;
constant_power_B 0;
constant_power_A 0;
nominal_voltage 120;
};

object load {
phases 3N;
name 62462236984;
parent node62462236984T62462236981;
load_class R;
constant_power_C 3.05322;
constant_power_B 0;
constant_power_A 0;
nominal_voltage 120;
};

object fuse {
phases 7N;
from nodeR120168062;
name R1201;
current_limit 9999.0 A;
to node68063R1201;
};

object fuse {
phases 7N;
from nodeF518757854;
name F5187;
current_limit 9999.0 A;
to node57850F5187;
};

object load {
phases 1N;
name 62463000348;
parent node62463000348T62463000400;
load_class R;
constant_power_C 0;
constant_power_B 0;
constant_power_A 0;
nominal_voltage 120;
};

object load {
phases 1N;
name 62462059368;
parent node62463000348T62463000400;
load_class R;
constant_power_C 0;
constant_power_B 0;
constant_power_A 2.32651;
nominal_voltage 120;
};

object load {
phases 1N;
name 62462059542;
parent node62462059542T62463000511;
load_class R;
constant_power_C 0;
constant_power_B 0;
constant_power_A 6.47233;
nominal_voltage 120;
};

object load {
phases 1N;
name 62462059675;
parent node62462059675T62463000610;
load_class R;
constant_power_C 0;
constant_power_B 0;
constant_power_A 0;
nominal_voltage 120;
};

object load {
phases 1N;
name 62462059694;
parent node62462059675T62463000610;
load_class R;
constant_power_C 0;
constant_power_B 0;
constant_power_A 0;
nominal_voltage 120;
};

object load {
phases 1N;
name 62462059538;
parent node62462059675T62463000610;
load_class R;
constant_power_C 0;
constant_power_B 0;
constant_power_A 2.09436;
nominal_voltage 120;
};

object load {
phases 1N;
name 62463001627;
parent node62463001627T62463000688;
load_class R;
constant_power_C 0;
constant_power_B 0;
constant_power_A 1.01438;
nominal_voltage 120;
};

object load {
phases 1N;
name 62462059793;
parent node62462059793T62462059787;
load_class R;
constant_power_C 0;
constant_power_B 0;
constant_power_A 0;
nominal_voltage 120;
};

object load {
phases 2N;
name 62462059308;
parent node62462059308T62462058491;
load_class R;
constant_power_C 0;
constant_power_B 1.44839;
constant_power_A 0;
nominal_voltage 120;
};

object fuse {
phases 7N;
from nodeF716757851;
name F7167;
current_limit 9999.0 A;
to node57808F7167;
};

object switch {
status CLOSED;
phases 7N;
from nodeSW1064-Bx157856;
name SW1064-Bx1;
to nodeSW1064-Ax1SW1064-Bx1;
};

object switch {
status CLOSED;
phases 7N;
from nodeSW1064-Ax1SW1064-Bx1;
name SW1064-Ax1;
to node57855SW1064-Ax1;
};

object fuse {
phases 7N;
from nodeF617157810;
name F6171;
current_limit 9999.0 A;
to node57811F6171;
};

object load {
phases 2N;
name 62474182051;
parent node62474182051T62463002948;
load_class R;
constant_power_C 0;
constant_power_B 2.34165;
constant_power_A 0;
nominal_voltage 120;
};

object load {
phases 2N;
name 62474182023;
parent node62474182051T62463002948;
load_class R;
constant_power_C 0;
constant_power_B 2.02371;
constant_power_A 0;
nominal_voltage 120;
};

object load {
phases 2N;
name 62474182070;
parent node62474182051T62463002948;
load_class R;
constant_power_C 0;
constant_power_B 0.921014;
constant_power_A 0;
nominal_voltage 120;
};

object load {
phases 3N;
name 62474181058;
parent node62474181058T62474181036;
load_class R;
constant_power_C 2.71005;
constant_power_B 0;
constant_power_A 0;
nominal_voltage 120;
};

object load {
phases 3N;
name 62474181087;
parent node62474181058T62474181036;
load_class R;
constant_power_C 1.7638;
constant_power_B 0;
constant_power_A 0;
nominal_voltage 120;
};

object load {
phases 3N;
name 62474181049;
parent node62474181058T62474181036;
load_class R;
constant_power_C 3.54527;
constant_power_B 0;
constant_power_A 0;
nominal_voltage 120;
};

object load {
phases 3N;
name 62463000855;
parent node62463000855T62463000829;
load_class R;
constant_power_C 0;
constant_power_B 0;
constant_power_A 0;
nominal_voltage 120;
};

object load {
phases 3N;
name 62463001804;
parent node62463001804T62463001814;
load_class R;
constant_power_C 0;
constant_power_B 0;
constant_power_A 0;
nominal_voltage 120;
};

object load {
phases 3N;
name 62463001887;
parent node62463001804T62463001814;
load_class R;
constant_power_C 1.94296;
constant_power_B 0;
constant_power_A 0;
nominal_voltage 120;
};

object load {
phases 3N;
name 62463000882;
parent node62463001804T62463001814;
load_class R;
constant_power_C 3.00528;
constant_power_B 0;
constant_power_A 0;
nominal_voltage 120;
};

object load {
phases 3N;
name 62463001801;
parent node62463001804T62463001814;
load_class R;
constant_power_C 2.3694;
constant_power_B 0;
constant_power_A 0;
nominal_voltage 120;
};

object load {
phases 3N;
name 62463001766;
parent node62463001766T62463001769;
load_class R;
constant_power_C 1.76885;
constant_power_B 0;
constant_power_A 0;
nominal_voltage 120;
};

object load {
phases 3N;
name 62463001747;
parent node62463001766T62463001769;
load_class R;
constant_power_C 1.83698;
constant_power_B 0;
constant_power_A 0;
nominal_voltage 120;
};

object load {
phases 1N;
name 62473239194;
parent node62473239194T62474180122;
load_class R;
constant_power_C 0;
constant_power_B 0;
constant_power_A 2.31137;
nominal_voltage 120;
};

object load {
phases 1N;
name 62474180125;
parent node62473239194T62474180122;
load_class R;
constant_power_C 0;
constant_power_B 0;
constant_power_A 7.44886;
nominal_voltage 120;
};

object load {
phases 2N;
name 62473238040;
parent node62473238040T62473238073;
load_class R;
constant_power_C 0;
constant_power_B 0;
constant_power_A 0;
nominal_voltage 120;
};

object load {
phases 2N;
name 62473238011;
parent node62473238040T62473238073;
load_class R;
constant_power_C 0;
constant_power_B 3.13902;
constant_power_A 0;
nominal_voltage 120;
};

object load {
phases 2N;
name 62473238221;
parent node62473238221T62473238126;
load_class R;
constant_power_C 0;
constant_power_B 0;
constant_power_A 0;
nominal_voltage 120;
};

object load {
phases 2N;
name 62473238255;
parent node62473238255T62473238283;
load_class R;
constant_power_C 0;
constant_power_B 3.89097;
constant_power_A 0;
nominal_voltage 120;
};

object load {
phases 1N;
name 62462058915;
parent node62462058915T62462058961;
load_class R;
constant_power_C 0;
constant_power_B 0;
constant_power_A 1.81175;
nominal_voltage 120;
};

object load {
phases 2N;
name 62462058744;
parent node62462058744T62462058764;
load_class R;
constant_power_C 0;
constant_power_B 0;
constant_power_A 0;
nominal_voltage 120;
};

object load {
phases 2N;
name 62462058715;
parent node62462058744T62462058764;
load_class R;
constant_power_C 0;
constant_power_B 1.97829;
constant_power_A 0;
nominal_voltage 120;
};

object load {
phases 1N;
name 62462057655;
parent node62462057655T62462057695;
load_class R;
constant_power_C 0;
constant_power_B 0;
constant_power_A 2.59146;
nominal_voltage 120;
};

object load {
phases 3N;
name 62462058558;
parent node62462058558T62462057585;
load_class R;
constant_power_C 3.29042;
constant_power_B 0;
constant_power_A 0;
nominal_voltage 120;
};

object load {
phases 3N;
name 62462058536;
parent node62462058558T62462057585;
load_class R;
constant_power_C 2.37445;
constant_power_B 0;
constant_power_A 0;
nominal_voltage 120;
};

object load {
phases 2N;
name 62462057439;
parent node62462057439T62462057478;
load_class R;
constant_power_C 0;
constant_power_B 0.958864;
constant_power_A 0;
nominal_voltage 120;
};

object load {
phases 2N;
name 62462057437;
parent node62462057439T62462057478;
load_class R;
constant_power_C 0;
constant_power_B 1.87231;
constant_power_A 0;
nominal_voltage 120;
};

object load {
phases 3N;
name 62462057863;
parent node62462057863T62462058873;
load_class R;
constant_power_C 1.98838;
constant_power_B 0;
constant_power_A 0;
nominal_voltage 120;
};

object load {
phases 3N;
name 62473239131;
parent node62473239131T62473239069;
load_class R;
constant_power_C 4.28208;
constant_power_B 0;
constant_power_A 0;
nominal_voltage 120;
};

object load {
phases 1N;
name 62463002869;
parent node62463002869T62463003904;
load_class R;
constant_power_C 0;
constant_power_B 0;
constant_power_A 1.17839;
nominal_voltage 120;
};

object load {
phases 1N;
name 62463002888;
parent node62463002869T62463003904;
load_class R;
constant_power_C 0;
constant_power_B 0;
constant_power_A 7.40092;
nominal_voltage 120;
};

object load {
phases 1N;
name 62463003936;
parent node62463002869T62463003904;
load_class R;
constant_power_C 0;
constant_power_B 0;
constant_power_A 2.71258;
nominal_voltage 120;
};

object switch {
status CLOSED;
phases 7N;
from nodeSW1139-Bx157809;
name SW1139-Bx1;
to nodeSW1139-Ax1SW1139-Bx1;
};

object switch {
status CLOSED;
phases 7N;
from nodeSW1139-Ax1SW1139-Bx1;
name SW1139-Ax1;
to node57864SW1139-Ax1;
};

object switch {
status CLOSED;
phases 7N;
from nodeSW1420-Bx157877;
name SW1420-Bx1;
to nodeSW1420-Ax1SW1420-Bx1;
};

object switch {
status CLOSED;
phases 7N;
from nodeSW1420-Ax1SW1420-Bx1;
name SW1420-Ax1;
to node57818SW1420-Ax1;
};

object fuse {
phases 1N;
from nodeF653757878;
name F6537;
current_limit 9999.0 A;
to node57866F6537;
};

object load {
phases 1N;
name 62474182499;
parent node62474182499T62474182459;
load_class R;
constant_power_C 0;
constant_power_B 0;
constant_power_A 0;
nominal_voltage 120;
};

object load {
phases 1N;
name 62474182422;
parent node62474182499T62474182459;
load_class R;
constant_power_C 0;
constant_power_B 0;
constant_power_A 1.81175;
nominal_voltage 120;
};

object load {
phases 1N;
name 62474182452;
parent node62474182499T62474182459;
load_class R;
constant_power_C 0;
constant_power_B 0;
constant_power_A 2.0338;
nominal_voltage 120;
};

object load {
phases 1N;
name 62474181469;
parent node62474181469T62474181497;
load_class R;
constant_power_C 0;
constant_power_B 0;
constant_power_A 2.24071;
nominal_voltage 120;
};

object load {
phases 1N;
name 62474181379;
parent node62474181379T62474181443;
load_class R;
constant_power_C 0;
constant_power_B 0;
constant_power_A 3.10621;
nominal_voltage 120;
};

object load {
phases 1N;
name 62474181480;
parent node62474181379T62474181443;
load_class R;
constant_power_C 0;
constant_power_B 0;
constant_power_A 2.09688;
nominal_voltage 120;
};

object load {
phases 1N;
name 62474181436;
parent node62474181379T62474181443;
load_class R;
constant_power_C 0;
constant_power_B 0;
constant_power_A 3.2021;
nominal_voltage 120;
};

object load {
phases 1N;
name 62474181415;
parent node62474181379T62474181443;
load_class R;
constant_power_C 0;
constant_power_B 0;
constant_power_A 2.74538;
nominal_voltage 120;
};

object load {
phases 1N;
name 62474181335;
parent node62474181335T62474180389;
load_class R;
constant_power_C 0;
constant_power_B 0;
constant_power_A 2.65202;
nominal_voltage 120;
};

object load {
phases 1N;
name 62474180472;
parent node62474181335T62474180389;
load_class R;
constant_power_C 0;
constant_power_B 0;
constant_power_A 2.50566;
nominal_voltage 120;
};

object load {
phases 1N;
name 62474181313;
parent node62474181335T62474180389;
load_class R;
constant_power_C 0;
constant_power_B 0;
constant_power_A 2.10193;
nominal_voltage 120;
};

object load {
phases 1N;
name 62474180317;
parent node62474180317T62474180356;
load_class R;
constant_power_C 0;
constant_power_B 0;
constant_power_A 2.41987;
nominal_voltage 120;
};

object load {
phases 2N;
name 62474181623;
parent node62474181623T62474181695;
load_class R;
constant_power_C 0;
constant_power_B 6.40925;
constant_power_A 0;
nominal_voltage 120;
};

object fuse {
phases 1N;
from nodeF742317888;
name F7423;
current_limit 9999.0 A;
to node18410F7423;
};

object load {
phases 1N;
name 62474182629;
parent node62474182629T62474182678;
load_class R;
constant_power_C 0;
constant_power_B 0;
constant_power_A 2.38959;
nominal_voltage 120;
};

object load {
phases 1N;
name 62462172377;
parent node62462172377T62462172490;
load_class R;
constant_power_C 0;
constant_power_B 0;
constant_power_A 5.02786;
nominal_voltage 120;
};

object load {
phases 2N;
name 62462172359;
parent node62462172359T62462172379;
load_class R;
constant_power_C 0;
constant_power_B 4.7817;
constant_power_A 0;
nominal_voltage 120;
};

object fuse {
phases 7N;
from nodeR120268064;
name R1202;
current_limit 9999.0 A;
to node68065R1202;
};

object fuse {
phases 1N;
from nodeF526917127;
name F5269;
current_limit 9999.0 A;
to node17134F5269;
};
