clock {
	timezone PST+8PDT;
	starttime '2000-01-01 00:00:00';
	stoptime '2000-01-01 00:00:00';
};

#set minimum_timestep=60;
#set profiler=1;
#set relax_naming_rules=1;
module generators;
module tape;
module residential {
	implicit_enduses NONE;
};

module powerflow {
	solver_method NR;
	NR_iteration_limit 50;
};

object node {
	phases ABCN;
	name COLOMA SUB;
	bustype SWING;
	longitude 8.41372185482;
	nominal_voltage 7200.0;
	latitude 611.857590486;
};

object regulator_configuration {
	Control OUTPUT_VOLTAGE;
	Type A;
	raise_taps 16.0;
	name Coloma Bus Regs-CONFIG;
	band_center 120.0;
	current_transducer_ratio 500;
	tap_pos_B 1;
	tap_pos_C 1;
	time_delay 30.0;
	connect_type WYE_WYE;
	regulation 0.1;
	CT_phase ABC;
	power_transducer_ratio 60.0;
	lower_taps 16.0;
	tap_pos_A 1;
	control_level INDIVIDUAL;
	PT_phase ABC;
	band_width 2.000004;
};

object regulator {
	phases ACB;
	from COLOMA SUB;
	name Coloma Bus Regs;
	longitude 0.0;
	to nodeCOLOMA4Coloma Bus Regs;
	latitude 634.339320767;
	configuration Coloma Bus Regs-CONFIG;
};

object fuse {
	phases ACB;
	from nodeCOLOMA4Coloma Bus Regs;
	name COLOMA4;
	current_limit 9999.0 A;
	longitude 8.41372185482;
	to node948739COLOMA4;
	latitude 612.449729836;
};

object underground_line {
	phases ACB;
	from node948739COLOMA4;
	name 948739;
	longitude 10.6284016434;
	to node824694948739;
	length 70;
	latitude 610.910167526;
	configuration 923991-LINECONFIG;
};

object underground_line {
	phases ACB;
	from node824694948739;
	name 824694;
	to nodeRCMA4-R0001x1824694;
	longitude 11.7730676016;
	length 70;
	latitude 609.340998248;
	configuration 923991-LINECONFIG;
};

object fuse {
	phases ACB;
	from nodeRCMA4-R0001x1824694;
	name RCMA4-R0001x1;
	current_limit 9999.0 A;
	longitude 11.7730676016;
	to node984636RCMA4-R0001x1;
	latitude 609.340998248;
};

object underground_line {
	phases ACB;
	from node984636RCMA4-R0001x1;
	name 984636;
	longitude 12.4698207935;
	to node984637984636;
	length 133;
	latitude 612.627371641;
	configuration 923991-LINECONFIG;
};

object underground_line {
	phases ACB;
	from node984637984636;
	name 984637;
	longitude 12.4947048361;
	to node984634984637;
	length 10;
	latitude 613.189904024;
	configuration 923991-LINECONFIG;
};

object underground_line {
	phases ACB;
	from node984634984637;
	name 984634;
	longitude 12.8679654746;
	to node12049x1-B984634;
	length 10;
	latitude 612.834620414;
	configuration 923991-LINECONFIG;
};

object underground_line {
	phases ACB;
	from node984634984637;
	name 984638;
	longitude 12.7186612192;
	to node984639984638;
	length 10;
	latitude 613.485973699;
	configuration 923991-LINECONFIG;
};

object underground_line {
	phases ACB;
	from node984639984638;
	name 984639;
	longitude 31.929142082;
	to node824697984639;
	length 781;
	latitude 613.693222472;
	configuration 923991-LINECONFIG;
};

object underground_line {
	phases B;
	from node824697984639;
	name 824697;
	to nodeT21526824697;
	longitude 32.4268229334;
	length 26;
	latitude 613.189904024;
	configuration 825117-LINECONFIG;
};

object underground_line {
	phases ACB;
	from node824697984639;
	name 824700;
	longitude 34.5170825091;
	to node824701824700;
	length 257;
	latitude 620.650859836;
	configuration 923991-LINECONFIG;
};

object overhead_line {
	phases ACBN;
	from node824701824700;
	name 824701;
	longitude 34.641502722;
	to node824702824701;
	length 129;
	latitude 624.470158644;
	configuration 824894-LINECONFIG;
};

object overhead_line {
	phases ACBN;
	from node824702824701;
	name 824702;
	longitude 34.641502722;
	to node824704824702;
	length 30;
	latitude 625.358367669;
	configuration 824894-LINECONFIG;
};

object overhead_line {
	phases ACBN;
	from node824704824702;
	name 824704;
	longitude 34.9898793179;
	to node824705824704;
	length 752;
	latitude 647.622807234;
	configuration 824894-LINECONFIG;
};

object overhead_line {
	phases ACB;
	from node824705824704;
	name 824705;
	longitude 38.4736452775;
	to node1808-19-005824705;
	length 140;
	latitude 647.622807234;
	configuration 824830-LINECONFIG;
};

object overhead_line {
	phases ACBN;
	from node824705824704;
	name 824707;
	longitude 35.3133718713;
	to node979614824707;
	length 1574;
	latitude 694.253781056;
	configuration 824894-LINECONFIG;
};

object underground_line {
	phases ACB;
	from node979614824707;
	name 979614;
	longitude 35.2138357011;
	to node979615979614;
	length 20;
	latitude 694.697885569;
	configuration 923991-LINECONFIG;
};

object underground_line {
	phases ACB;
	from node979615979614;
	name 979615;
	longitude 11.9970239847;
	to nodeT28934979615;
	length 960;
	latitude 694.461029829;
	configuration 825456-LINECONFIG;
};

object underground_line {
	phases ACB;
	from node979615979614;
	name 979617;
	longitude 37.9510803836;
	to nodeT28933979617;
	length 140;
	latitude 695.260417952;
	configuration 825456-LINECONFIG;
};

object overhead_line {
	phases ACB;
	from node979614824707;
	name 979839;
	longitude 35.2636037862;
	to node824712979839;
	length 50;
	latitude 695.349238854;
	configuration 824894-LINECONFIG;
};

object underground_line {
	phases ACB;
	from node824712979839;
	name 824712;
	longitude 35.1889516585;
	to node824713824712;
	length 1036;
	latitude 724.837778491;
	configuration 825456-LINECONFIG;
};

object underground_line {
	phases B;
	from node824713824712;
	name 824713;
	longitude 28.7439846333;
	to node1808-19-008824713;
	length 392;
	latitude 733.542226937;
	configuration 825117-LINECONFIG;
};

object underground_line {
	phases C;
	from node824713824712;
	name 824715;
	to node824716824715;
	longitude 35.1889516585;
	length 830;
	latitude 749.411561521;
	configuration 925975-LINECONFIG;
};

object underground_line {
	phases C;
	from node824716824715;
	name 824716;
	longitude 36.4580378295;
	to nodeR7229x1824716;
	length 20;
	latitude 749.411561521;
	configuration 925975-LINECONFIG;
};

object fuse {
	phases C;
	from nodeR7229x1824716;
	name R7229x1;
	current_limit 9999.0 A;
	longitude 36.4580378295;
	to node920601R7229x1;
	latitude 749.411561521;
};

object overhead_line {
	phases CN;
	from node920601R7229x1;
	name 920601;
	longitude 55.0713016707;
	to node824717920601;
	length 778;
	latitude 749.529989391;
	configuration 824825-LINECONFIG;
};

object overhead_line {
	phases CN;
	from node824717920601;
	name 824717;
	longitude 55.4196782666;
	to node824718824717;
	length 1237;
	latitude 786.153808196;
	configuration 824825-LINECONFIG;
};

object overhead_line {
	phases CN;
	from node824718824717;
	name 824718;
	longitude 63.6065282717;
	to node824720824718;
	length 433;
	latitude 794.473366065;
	configuration 824825-LINECONFIG;
};

object overhead_line {
	phases CN;
	from node824720824718;
	name 824720;
	longitude 63.6065282717;
	to node824721824720;
	length 1357;
	latitude 834.650020972;
	configuration 824825-LINECONFIG;
};

object overhead_line {
	phases CN;
	from node824721824720;
	name 824721;
	longitude 84.9321527528;
	to node824722824721;
	length 1076;
	latitude 853.894549851;
	configuration 824825-LINECONFIG;
};

object overhead_line {
	phases CN;
	from node824722824721;
	name 824722;
	to node824723824722;
	longitude 111.632730429;
	length 1073;
	latitude 853.420838371;
	configuration 824825-LINECONFIG;
};

object overhead_line {
	phases CN;
	from node824723824722;
	name 824723;
	longitude 129.399936823;
	to node906386824723;
	length 714;
	latitude 852.947126891;
	configuration 824825-LINECONFIG;
};

object overhead_line {
	phases CN;
	from node906386824723;
	name 906386;
	longitude 137.736091083;
	to node824726906386;
	length 335;
	latitude 852.71027115;
	configuration 824825-LINECONFIG;
};

object overhead_line {
	phases CN;
	from node824726906386;
	name 824726;
	longitude 147.092491089;
	to node824727824726;
	length 376;
	latitude 852.47341541;
	configuration 824825-LINECONFIG;
};

object overhead_line {
	phases CN;
	from node824727824726;
	name 824727;
	longitude 160.903134714;
	to node824728824727;
	length 555;
	latitude 852.088524833;
	configuration 824825-LINECONFIG;
};

object overhead_line {
	phases CN;
	from node824728824727;
	name 824728;
	longitude 175.534951745;
	to node824729824728;
	length 588;
	latitude 852.029310898;
	configuration 824825-LINECONFIG;
};

object overhead_line {
	phases CN;
	from node824729824728;
	name 824729;
	longitude 179.068485789;
	to node824730824729;
	length 142;
	latitude 852.029310898;
	configuration 824825-LINECONFIG;
};

object overhead_line {
	phases CN;
	from node824730824729;
	name 824730;
	longitude 186.807423028;
	to node824731824730;
	length 311;
	latitude 851.970096963;
	configuration 824825-LINECONFIG;
};

object overhead_line {
	phases CN;
	from node824731824730;
	name 824731;
	to node824732824731;
	longitude 186.011133666;
	length 281;
	latitude 860.230440897;
	configuration 824825-LINECONFIG;
};

object overhead_line {
	phases CN;
	from node824732824731;
	name 824732;
	longitude 184.343902814;
	to node824733824732;
	length 282;
	latitude 868.342749994;
	configuration 824825-LINECONFIG;
};

object overhead_line {
	phases CN;
	from node824733824732;
	name 824733;
	longitude 179.292442172;
	to node824734824733;
	length 592;
	latitude 884.804223927;
	configuration 824825-LINECONFIG;
};

object overhead_line {
	phases C;
	from node824734824733;
	name 824734;
	longitude 176.505429405;
	to node824738824734;
	length 242;
	latitude 891.140114974;
	configuration 824825-LINECONFIG;
};

object underground_line {
	phases C;
	from node824738824734;
	name 824738;
	longitude 175.186575149;
	to nodeF7974x1824738;
	length 50;
	latitude 890.518368656;
	configuration 925975-LINECONFIG;
};

object fuse {
	phases C;
	from nodeF7974x1824738;
	name F7974x1;
	current_limit 9999.0 A;
	longitude 175.186575149;
	to node824739F7974x1;
	latitude 890.518368656;
};

object underground_line {
	phases C;
	from node824739F7974x1;
	name 824739;
	longitude 147.3910996;
	to node824740824739;
	length 1217;
	latitude 894.071204757;
	configuration 925975-LINECONFIG;
};

object underground_line {
	phases C;
	from node824740824739;
	name 824740;
	longitude 134.998846401;
	to node824741824740;
	length 816;
	latitude 913.197305766;
	configuration 925975-LINECONFIG;
};

object underground_line {
	phases C;
	from node824741824740;
	name 824741;
	to node824742824741;
	longitude 125.542910225;
	length 380;
	latitude 913.434161506;
	configuration 925975-LINECONFIG;
};

object underground_line {
	phases C;
	from node824742824741;
	name 824742;
	longitude 129.399936823;
	to nodeFCMA4-F008x1824742;
	length 178;
	latitude 916.009967679;
	configuration 925975-LINECONFIG;
};

object fuse {
	phases C;
	from nodeFCMA4-F008x1824742;
	name FCMA4-F008x1;
	current_limit 9999.0 A;
	longitude 129.399936823;
	to node824743FCMA4-F008x1;
	latitude 916.009967679;
};

object underground_line {
	phases C;
	from node824743FCMA4-F008x1;
	name 824743;
	longitude 128.578763418;
	to node1808-0151824743;
	length 699;
	latitude 936.675630998;
	configuration 925975-LINECONFIG;
};

object underground_line {
	phases C;
	from node824742824741;
	name 824745;
	longitude 118.32653788;
	to node1808-0164824745;
	length 305;
	latitude 910.621499593;
	configuration 925975-LINECONFIG;
};

object underground_line {
	phases C;
	from node824732824731;
	name 905282;
	longitude 186.558582602;
	to nodeF5088x1905282;
	length 22;
	latitude 860.260047865;
	configuration 925975-LINECONFIG;
};

object fuse {
	phases C;
	from nodeF5088x1905282;
	name F5088x1;
	current_limit 9999.0 A;
	longitude 186.558582602;
	to node905284F5088x1;
	latitude 860.260047865;
};

object underground_line {
	phases C;
	from node905284F5088x1;
	name 905284;
	longitude 197.283604949;
	to nodeT5087905284;
	length 432;
	latitude 861.089042955;
	configuration 925975-LINECONFIG;
};

object overhead_line {
	phases CN;
	from node824731824730;
	name 824747;
	longitude 196.984996439;
	to node824748824747;
	length 409;
	latitude 851.496385483;
	configuration 824825-LINECONFIG;
};

object overhead_line {
	phases CN;
	from node824748824747;
	name 824748;
	longitude 199.597820908;
	to node824750824748;
	length 112;
	latitude 850.312106782;
	configuration 824825-LINECONFIG;
};

object overhead_line {
	phases CN;
	from node824750824748;
	name 824750;
	longitude 200.618066654;
	to node824751824750;
	length 100;
	latitude 847.617872739;
	configuration 824825-LINECONFIG;
};

object overhead_line {
	phases CN;
	from node824751824750;
	name 824751;
	longitude 200.792254952;
	to node824752824751;
	length 175;
	latitude 842.436653426;
	configuration 824825-LINECONFIG;
};

object overhead_line {
	phases CN;
	from node824752824751;
	name 824752;
	longitude 200.916675164;
	to node824755824752;
	length 300;
	latitude 833.554563174;
	configuration 824825-LINECONFIG;
};

object overhead_line {
	phases CN;
	from node824755824752;
	name 824755;
	longitude 201.041095377;
	to node824759824755;
	length 309;
	latitude 824.406010214;
	configuration 824825-LINECONFIG;
};

object overhead_line {
	phases CN;
	from node824759824755;
	name 824759;
	to node900841824759;
	longitude 201.140631548;
	length 322;
	latitude 814.872566677;
	configuration 949086-LINECONFIG;
};

object overhead_line {
	phases CN;
	from node900841824759;
	name 900841;
	longitude 201.190399633;
	to node824760900841;
	length 190;
	latitude 811.290123609;
	configuration 949086-LINECONFIG;
};

object overhead_line {
	phases CN;
	from node824760900841;
	name 824760;
	longitude 201.339703888;
	to node900842824760;
	length 315;
	latitude 801.993535812;
	configuration 949086-LINECONFIG;
};

object overhead_line {
	phases CN;
	from node900842824760;
	name 900842;
	longitude 201.464124101;
	to node949086900842;
	length 335;
	latitude 792.28245047;
	configuration 949086-LINECONFIG;
};

object line_configuration {
	name 949086-LINECONFIG;
	spacing 825694-LINESPACING;
	conductor_N 949086_conductor_N;
	conductor_C 949086_conductor_N;
};

object overhead_line_conductor {
	diameter 0.721;
	name 949086_conductor_N;
	geometric_mean_radius 0.00504;
	resistance 1.65;
};

object overhead_line {
	phases CN;
	from node949086900842;
	name 949086;
	longitude 201.563660271;
	to node824761949086;
	length 315;
	latitude 784.436604081;
	configuration 949086-LINECONFIG;
};

object overhead_line {
	phases CN;
	from node824761949086;
	name 824761;
	longitude 208.506308148;
	to node914176824761;
	length 325;
	latitude 784.495818016;
	configuration 914176-LINECONFIG;
};

object line_configuration {
	name 914176-LINECONFIG;
	spacing 825694-LINESPACING;
	conductor_N 824894_conductor_N;
	conductor_C 824894_conductor_C;
};

object overhead_line {
	phases C;
	from node914176824761;
	name 914176;
	longitude 216.095941131;
	to node1808-29-023914176;
	length 300;
	latitude 784.614245886;
	configuration 914176-LINECONFIG;
};

object underground_line {
	phases C;
	from node824761949086;
	name 949050;
	to node12900x1-Bx1949050;
	longitude 201.538776229;
	length 659;
	latitude 783.696429893;
	configuration 925975-LINECONFIG;
};

object underground_line {
	phases C;
	from node824760900841;
	name 824798;
	longitude 202.758094314;
	to nodeFCMA4-F074x1824798;
	length 66;
	latitude 809.395277689;
	configuration 925975-LINECONFIG;
};

object fuse {
	phases C;
	from nodeFCMA4-F074x1824798;
	name FCMA4-F074x1;
	current_limit 9999.0 A;
	longitude 202.758094314;
	to node824799FCMA4-F074x1;
	latitude 809.395277689;
};

object underground_line {
	phases C;
	from node824799FCMA4-F074x1;
	name 824799;
	longitude 204.226252826;
	to node824800824799;
	length 58;
	latitude 809.306456786;
	configuration 925975-LINECONFIG;
};

object underground_line {
	phases C;
	from node824800824799;
	name 824800;
	longitude 218.833185814;
	to node824802824800;
	length 587;
	latitude 809.128814981;
	configuration 925975-LINECONFIG;
};

object underground_line {
	phases C;
	from node824802824800;
	name 824802;
	longitude 214.652666662;
	to node1808-0088824802;
	length 194;
	latitude 812.030297797;
	configuration 925975-LINECONFIG;
};

object overhead_line {
	phases C;
	from node824759824755;
	name 824805;
	longitude 207.212337934;
	to node1808-29-032824805;
	length 248;
	latitude 824.376403247;
	configuration 824825-LINECONFIG;
};

object underground_line {
	phases C;
	from node824759824755;
	name 824809;
	to nodeFCMA4-F056x1824809;
	longitude 200.319458143;
	length 49;
	latitude 823.251338482;
	configuration 925975-LINECONFIG;
};

object fuse {
	phases C;
	from nodeFCMA4-F056x1824809;
	name FCMA4-F056x1;
	current_limit 9999.0 A;
	longitude 200.319458143;
	to node824810FCMA4-F056x1;
	latitude 823.251338482;
};

object underground_line {
	phases C;
	from node824810FCMA4-F056x1;
	name 824810;
	longitude 191.361202818;
	to node1808-0144824810;
	length 360;
	latitude 823.251338482;
	configuration 925975-LINECONFIG;
};

object underground_line {
	phases C;
	from node824727824726;
	name 824814;
	longitude 148.46111343;
	to nodeFCMA4-F107x1824814;
	length 78;
	latitude 854.131405591;
	configuration 925975-LINECONFIG;
};

object fuse {
	phases C;
	from nodeFCMA4-F107x1824814;
	name FCMA4-F107x1;
	current_limit 9999.0 A;
	longitude 148.46111343;
	to node824815FCMA4-F107x1;
	latitude 854.131405591;
};

object underground_line {
	phases C;
	from node824815FCMA4-F107x1;
	name 824815;
	longitude 147.440867685;
	to node824816824815;
	length 131;
	latitude 850.46014162;
	configuration 925975-LINECONFIG;
};

object underground_line {
	phases C;
	from node824816824815;
	name 824816;
	longitude 147.3910996;
	to node1808-29-034824816;
	length 403;
	latitude 862.391749525;
	configuration 925975-LINECONFIG;
};

object underground_line {
	phases C;
	from node824816824815;
	name 824818;
	to node824820824818;
	longitude 147.440867685;
	length 198;
	latitude 844.597962054;
	configuration 925975-LINECONFIG;
};

object underground_line {
	phases C;
	from node824820824818;
	name 824820;
	longitude 159.434976203;
	to node1808-0150824820;
	length 534;
	latitude 837.788359527;
	configuration 925975-LINECONFIG;
};

object underground_line {
	phases C;
	from node906386824723;
	name 911237;
	longitude 130.096690015;
	to node911238911237;
	length 45;
	latitude 853.509659273;
	configuration 925975-LINECONFIG;
};

object underground_line {
	phases C;
	from node911238911237;
	name 911238;
	to nodeT4114911238;
	longitude 130.096690015;
	length 280;
	latitude 861.799610175;
	configuration 925975-LINECONFIG;
};

object underground_line {
	phases C;
	from node824722824721;
	name 824822;
	longitude 84.9072687103;
	to nodeF18632x1824822;
	length 70;
	latitude 853.095161728;
	configuration 825688-LINECONFIG;
};

object fuse {
	phases C;
	from nodeF18632x1824822;
	name F18632x1;
	current_limit 9999.0 A;
	longitude 84.9072687103;
	to node824823F18632x1;
	latitude 853.095161728;
};

object underground_line {
	phases C;
	from node824823F18632x1;
	name 824823;
	longitude 84.9321527528;
	to node900921824823;
	length 17;
	latitude 852.147738768;
	configuration 825688-LINECONFIG;
};

object underground_line {
	phases C;
	from node900921824823;
	name 900921;
	to nodeT18630900921;
	longitude 119.520971923;
	length 2486;
	latitude 799.032839061;
	configuration 825688-LINECONFIG;
};

object overhead_line {
	phases CN;
	from node824722824721;
	name 910307;
	longitude 82.1949080703;
	to node910308910307;
	length 250;
	latitude 860.55611754;
	configuration 825694-LINECONFIG;
};

object overhead_line {
	phases C;
	from node910308910307;
	name 910308;
	longitude 82.1949080703;
	to node1808-20-011910308;
	length 250;
	latitude 867.957859416;
	configuration 825694-LINECONFIG;
};

object line_configuration {
	name 824825-LINECONFIG;
	spacing 825694-LINESPACING;
	conductor_N 913826_conductor_N;
	conductor_C 913826_conductor_N;
};

object overhead_line {
	phases C;
	from node824717920601;
	name 824825;
	longitude 63.4572240162;
	to node1808-20-008824825;
	length 338;
	latitude 748.819422171;
	configuration 824825-LINECONFIG;
};

object underground_line {
	phases ACB;
	from node824713824712;
	name 824827;
	longitude 9.68280802582;
	to node974368824827;
	length 1032;
	latitude 721.196121487;
	configuration 825456-LINECONFIG;
};

object underground_line {
	phases ACB;
	from node974368824827;
	name 974368;
	longitude 7.54278036493;
	to nodeT29595974368;
	length 678;
	latitude 701.270632355;
	configuration 825456-LINECONFIG;
};

object underground_line {
	phases ACB;
	from node974368824827;
	name 974371;
	longitude 7.79162079061;
	to nodeT29596974371;
	length 668;
	latitude 736.621351558;
	configuration 825456-LINECONFIG;
};

object line_configuration {
	name 824830-LINECONFIG;
	spacing 824894-LINESPACING;
	conductor_N 825694_conductor_N;
	conductor_A 825694_conductor_N;
	conductor_C 825694_conductor_N;
	conductor_B 825694_conductor_N;
};

object overhead_line {
	phases ACB;
	from node824701824700;
	name 824830;
	longitude 39.5934271931;
	to node1808-19-009824830;
	length 204;
	latitude 620.591645901;
	configuration 824830-LINECONFIG;
};

object underground_line {
	phases ACB;
	from node824697984639;
	name 824833;
	longitude 38.8220218735;
	to node824834824833;
	length 281;
	latitude 612.331301966;
	configuration 923991-LINECONFIG;
};

object underground_line {
	phases ACB;
	from node824834824833;
	name 824834;
	longitude 38.9464420863;
	to node533x1-Bx1824834;
	length 10;
	latitude 612.331301966;
	configuration 824901-LINECONFIG;
};

object switch {
	status CLOSED;
	phases ACB;
	from node533x1-Bx1824834;
	name 533x1-Bx1;
	longitude 38.9464420863;
	to node533x1-Ax1533x1-Bx1;
	latitude 612.331301966;
};

object switch {
	status CLOSED;
	phases ACB;
	from node533x1-Ax1533x1-Bx1;
	name 533x1-Ax1;
	longitude 38.9464420863;
	to node824835533x1-Ax1;
	latitude 612.331301966;
};

object overhead_line {
	phases ACBN;
	from node824835533x1-Ax1;
	name 824835;
	longitude 40.812745279;
	to node824836824835;
	length 75;
	latitude 612.331301966;
	configuration 824894-LINECONFIG;
};

object overhead_line {
	phases ACBN;
	from node824836824835;
	name 824836;
	longitude 47.1332920913;
	to node824837824836;
	length 254;
	latitude 612.331301966;
	configuration 824894-LINECONFIG;
};

object overhead_line {
	phases ACBN;
	from node824837824836;
	name 824837;
	to node824838824837;
	longitude 130.743675121;
	length 3360;
	latitude 612.479336804;
	configuration 824894-LINECONFIG;
};

object underground_line {
	phases ACB;
	from node824838824837;
	name 824838;
	longitude 130.395298525;
	to nodeFCMA4-F016x1824838;
	length 117;
	latitude 615.913745035;
	configuration 825456-LINECONFIG;
};

object fuse {
	phases ACB;
	from nodeFCMA4-F016x1824838;
	name FCMA4-F016x1;
	current_limit 9999.0 A;
	longitude 130.395298525;
	to node824839FCMA4-F016x1;
	latitude 615.913745035;
};

object underground_line {
	phases ACB;
	from node824839FCMA4-F016x1;
	name 824839;
	longitude 137.362830445;
	to node1808-19-010824839;
	length 2136;
	latitude 678.621302213;
	configuration 825456-LINECONFIG;
};

object overhead_line {
	phases ACBN;
	from node824838824837;
	name 824842;
	longitude 140.199611297;
	to node824843824842;
	length 380;
	latitude 612.449729836;
	configuration 824894-LINECONFIG;
};

object overhead_line {
	phases ACBN;
	from node824843824842;
	name 824843;
	to node824844824843;
	longitude 157.344716627;
	length 689;
	latitude 612.508943771;
	configuration 824894-LINECONFIG;
};

object overhead_line {
	phases ACBN;
	from node824844824843;
	name 824844;
	longitude 237.869478379;
	to node824847824844;
	length 3236;
	latitude 612.834620414;
	configuration 824894-LINECONFIG;
};

object overhead_line {
	phases ACBN;
	from node824847824844;
	name 824847;
	longitude 263.0770135;
	to node824848824847;
	length 1014;
	latitude 613.782043374;
	configuration 824894-LINECONFIG;
};

object underground_line {
	phases C;
	from node824848824847;
	name 824848;
	longitude 263.201433713;
	to nodeR7231x1824848;
	length 118;
	latitude 610.288421208;
	configuration 925975-LINECONFIG;
};

object fuse {
	phases C;
	from nodeR7231x1824848;
	name R7231x1;
	current_limit 9999.0 A;
	longitude 263.201433713;
	to node824849R7231x1;
	latitude 610.288421208;
};

object underground_line {
	phases C;
	from node824849R7231x1;
	name 824849;
	longitude 268.675923078;
	to node824850824849;
	length 2623;
	latitude 532.895808147;
	configuration 925975-LINECONFIG;
};

object underground_line {
	phases C;
	from node824850824849;
	name 824850;
	longitude 310.008317785;
	to node1807-0244824850;
	length 1877;
	latitude 506.989711579;
	configuration 925975-LINECONFIG;
};

object overhead_line {
	phases CN;
	from node824850824849;
	name 824852;
	longitude 269.745936909;
	to node824853824852;
	length 301;
	latitude 524.07293183;
	configuration 825694-LINECONFIG;
};

object overhead_line {
	phases CN;
	from node824853824852;
	name 824853;
	longitude 270.019661377;
	to node824855824853;
	length 1294;
	latitude 485.761515877;
	configuration 825694-LINECONFIG;
};

object overhead_line {
	phases CN;
	from node824855824853;
	name 824855;
	longitude 270.069429462;
	to node824857824855;
	length 339;
	latitude 475.724753892;
	configuration 825694-LINECONFIG;
};

object overhead_line {
	phases CN;
	from node824857824855;
	name 824857;
	longitude 270.14408159;
	to node824858824857;
	length 317;
	latitude 466.339345193;
	configuration 825694-LINECONFIG;
};

object overhead_line {
	phases CN;
	from node824858824857;
	name 824858;
	longitude 270.392922016;
	to node824859824858;
	length 303;
	latitude 460.447558659;
	configuration 825694-LINECONFIG;
};

object overhead_line {
	phases CN;
	from node824859824858;
	name 824859;
	longitude 293.535081604;
	to node980396824859;
	length 930;
	latitude 460.832449236;
	configuration 825694-LINECONFIG;
};

object overhead_line {
	phases CN;
	from node980396824859;
	name 980396;
	longitude 300.975410332;
	to node980393980396;
	length 300;
	latitude 460.950877106;
	configuration 825694-LINECONFIG;
};

object overhead_line {
	phases CN;
	from node980393980396;
	name 980393;
	to node824860980393;
	longitude 301.000294375;
	length 143;
	latitude 457.930966421;
	configuration 825694-LINECONFIG;
};

object overhead_line {
	phases CN;
	from node824860980393;
	name 824860;
	longitude 301.124714588;
	to node923236824860;
	length 143;
	latitude 454.052453677;
	configuration 825694-LINECONFIG;
};

object overhead_line {
	phases CN;
	from node923236824860;
	name 923236;
	longitude 301.348670971;
	to node923237923236;
	length 264;
	latitude 446.177000321;
	configuration 825694-LINECONFIG;
};

object overhead_line {
	phases CN;
	from node923237923236;
	name 923237;
	longitude 301.821467779;
	to node923238923237;
	length 257;
	latitude 438.479188769;
	configuration 825694-LINECONFIG;
};

object overhead_line {
	phases CN;
	from node923238923237;
	name 923238;
	longitude 301.821467779;
	to node824862923238;
	length 293;
	latitude 429.80434729;
	configuration 825694-LINECONFIG;
};

object overhead_line {
	phases CN;
	from node824862923238;
	name 824862;
	longitude 301.945887992;
	to node923239824862;
	length 321;
	latitude 422.609854186;
	configuration 825694-LINECONFIG;
};

object overhead_line {
	phases CN;
	from node923239824862;
	name 923239;
	longitude 302.095192248;
	to node923240923239;
	length 252;
	latitude 415.119291407;
	configuration 825694-LINECONFIG;
};

object overhead_line {
	phases CN;
	from node923240923239;
	name 923240;
	longitude 302.269380546;
	to node923241923240;
	length 249;
	latitude 407.747156497;
	configuration 825694-LINECONFIG;
};

object overhead_line {
	phases CN;
	from node923241923240;
	name 923241;
	to node923242923241;
	longitude 302.393800759;
	length 258;
	latitude 400.108558881;
	configuration 825694-LINECONFIG;
};

object overhead_line {
	phases C;
	from node923242923241;
	name 923242;
	longitude 302.567989057;
	to nodeF7815x1923242;
	length 270;
	latitude 393.298956354;
	configuration 825694-LINECONFIG;
};

object fuse {
	phases C;
	from nodeF7815x1923242;
	name F7815x1;
	current_limit 9999.0 A;
	longitude 302.567989057;
	to node922977F7815x1;
	latitude 393.298956354;
};

object underground_line {
	phases C;
	from node922977F7815x1;
	name 922977;
	longitude 303.065669908;
	to node922975922977;
	length 56;
	latitude 392.114677654;
	configuration 925975-LINECONFIG;
};

object underground_line {
	phases C;
	from node922975922977;
	name 922975;
	longitude 303.015901823;
	to node922976922975;
	length 150;
	latitude 386.607781698;
	configuration 925975-LINECONFIG;
};

object underground_line {
	phases C;
	from node922976922975;
	name 922976;
	longitude 332.379072054;
	to nodeT12925922976;
	length 1320;
	latitude 387.022279243;
	configuration 925975-LINECONFIG;
};

object underground_line {
	phases C;
	from node922976922975;
	name 922978;
	to node922979922978;
	longitude 298.934918842;
	length 1300;
	latitude 350.753744048;
	configuration 925975-LINECONFIG;
};

object underground_line {
	phases C;
	from node922979922978;
	name 922979;
	longitude 297.46676033;
	to node922980922979;
	length 30;
	latitude 350.72413708;
	configuration 925975-LINECONFIG;
};

object underground_line {
	phases C;
	from node922980922979;
	name 922980;
	longitude 281.590741171;
	to node1807-0304922980;
	length 597;
	latitude 349.628679283;
	configuration 925975-LINECONFIG;
};

object underground_line {
	phases C;
	from node922979922978;
	name 922981;
	longitude 299.581903948;
	to node824871922981;
	length 25;
	latitude 348.533221485;
	configuration 925975-LINECONFIG;
};

object underground_line {
	phases C;
	from node824871922981;
	name 824871;
	longitude 299.482367778;
	to node922983824871;
	length 372;
	latitude 339.739952135;
	configuration 825688-LINECONFIG;
};

object underground_line {
	phases C;
	from node922983824871;
	name 922983;
	longitude 299.183759267;
	to node1807-0292922983;
	length 1250;
	latitude 302.731242752;
	configuration 825688-LINECONFIG;
};

object underground_line {
	phases C;
	from node980393980396;
	name 980395;
	longitude 330.388348648;
	to node980394980395;
	length 1162;
	latitude 461.454195554;
	configuration 925975-LINECONFIG;
};

object overhead_line {
	phases CN;
	from node980394980395;
	name 980394;
	longitude 333.075825245;
	to node824878980394;
	length 246;
	latitude 465.954454615;