

!!!master.dss
clear
new object=circuit.feeder_rdt1527-rhs0_1247x


! redirect vsource.dss
! redirect linecode.dss
! redirect loadshape.dss
! redirect growthshape.dss
! redirect xycurve.dss
! redirect tcc_curve.dss
! redirect spectrum.dss
! redirect line.dss
! redirect load.dss
! redirect transformer.dss
! redirect regcontrol.dss
! redirect storage.dss
! redirect fuse.dss
! redirect pvsystem.dss
! redirect invcontrol.dss
! makebuslist
! redirect busvoltagebases.dss ! set voltage bases
! buscoords buscoords.dss
! giscoords giscoords.dss


!!!loadshape.dss
new object=loadshape.default npts=24 interval=1 mult=[0.677,0.6256,0.6087,0.5833,0.58028,0.6025,0.657,0.7477,0.832,0.88,0.94,0.989,0.985,0.98,0.9898,0.999,1,0.958,0.936,0.913,0.876,0.876,0.828,0.756]
new object=loadshape.gso_36.1751_-79.7183_45_225 npts=96 interval=0.25 mult=[0,0,0,0,0,0,0,0,0,0,0,0,0,0,0,0,0,0,0,0,0,0,0,0,0,0,0,0,0,0,0.00512,0.01451,0.02594,0.03142,0.0561,0.10866,0.16816,0.22862,0.29268,0.35557,0.41925,0.47946,0.5396,0.59557,0.65037,0.70112,0.74976,0.79334,0.83416,0.86806,0.89862,0.92379,0.94529,0.95911,0.96906,0.97082,0.9687,0.96827,0.95414,0.92836,0.89921,0.85885,0.81586,0.7549,0.69267,0.60434,0.51713,0.38254,0.19526,0.00811,0,0,0,0,0,0,0,0,0,0,0,0,0,0,0,0,0,0,0,0,0,0,0,0,0,0]
new object=loadshape.gso_36.2120_-79.7183_35_135 npts=96 interval=0.25 mult=[0,0,0,0,0,0,0,0,0,0,0,0,0,0,0,0,0,0,0,0,0,0,0,0,0,0,0,0,0,0,0,0.16156,0.33408,0.43179,0.54416,0.61364,0.68338,0.73531,0.78581,0.82327,0.85007,0.86945,0.8855,0.90204,0.91496,0.91535,0.91189,0.90103,0.8864,0.86546,0.84097,0.80949,0.77494,0.73499,0.69248,0.6455,0.59674,0.54283,0.48946,0.43071,0.37242,0.31041,0.25048,0.18968,0.13342,0.07878,0.03293,0.0225,0.01728,0.00864,0,0,0,0,0,0,0,0,0,0,0,0,0,0,0,0,0,0,0,0,0,0,0,0,0,0]
new object=loadshape.gso_36.1751_-79.7183_15_225 npts=96 interval=0.25 mult=[0,0,0,0,0,0,0,0,0,0,0,0,0,0,0,0,0,0,0,0,0,0,0,0,0,0,0,0,0,0,0.0059,0.01671,0.03594,0.07457,0.12407,0.17333,0.22745,0.27896,0.33238,0.38245,0.43214,0.47705,0.52077,0.55942,0.59604,0.6281,0.65746,0.68158,0.70259,0.717,0.72802,0.73417,0.73686,0.73295,0.72564,0.71179,0.69481,0.6756,0.64975,0.61573,0.57972,0.53706,0.4935,0.43991,0.38723,0.32205,0.26086,0.18058,0.0909,0.00934,0,0,0,0,0,0,0,0,0,0,0,0,0,0,0,0,0,0,0,0,0,0,0,0,0,0]
new object=loadshape.gso_36.2489_-79.7183_25_180 npts=96 interval=0.25 mult=[0,0,0,0,0,0,0,0,0,0,0,0,0,0,0,0,0,0,0,0,0,0,0,0,0,0,0,0,0,0,0,0.07562,0.16591,0.23917,0.32754,0.39312,0.46251,0.5219,0.58222,0.63374,0.67947,0.72329,0.76512,0.79992,0.83191,0.85608,0.8769,0.89137,0.90219,0.90659,0.90723,0.90018,0.88944,0.87246,0.85205,0.82463,0.79424,0.75696,0.72262,0.67563,0.62727,0.57199,0.51671,0.45235,0.39017,0.31729,0.25016,0.16688,0.08023,0.00905,0,0,0,0,0,0,0,0,0,0,0,0,0,0,0,0,0,0,0,0,0,0,0,0,0,0]
new object=loadshape.gso_36.1751_-79.7183_35_270 npts=96 interval=0.25 mult=[0,0,0,0,0,0,0,0,0,0,0,0,0,0,0,0,0,0,0,0,0,0,0,0,0,0,0,0,0,0,0.00546,0.01546,0.02578,0.03068,0.03569,0.0387,0.04179,0.04394,0.04613,0.04785,0.05534,0.10562,0.15717,0.20747,0.25735,0.30579,0.35296,0.39722,0.43955,0.4774,0.5127,0.54439,0.57314,0.59622,0.61603,0.62969,0.63989,0.64753,0.64821,0.63967,0.62775,0.60704,0.58339,0.54556,0.50562,0.44517,0.38421,0.28633,0.14956,0.00864,0,0,0,0,0,0,0,0,0,0,0,0,0,0,0,0,0,0,0,0,0,0,0,0,0,0]
new object=loadshape.gso_36.2120_-79.7183_15_225 npts=96 interval=0.25 mult=[0,0,0,0,0,0,0,0,0,0,0,0,0,0,0,0,0,0,0,0,0,0,0,0,0,0,0,0,0,0,0,0.0172,0.0335,0.07389,0.12483,0.17356,0.22715,0.27864,0.33203,0.38157,0.43072,0.47348,0.51463,0.55593,0.59561,0.62766,0.65702,0.68082,0.7015,0.71678,0.72869,0.73396,0.73575,0.7316,0.72405,0.71079,0.6944,0.67074,0.6482,0.61506,0.57995,0.53618,0.49154,0.43828,0.38592,0.32132,0.26065,0.18035,0.09083,0.00934,0,0,0,0,0,0,0,0,0,0,0,0,0,0,0,0,0,0,0,0,0,0,0,0,0,0]
new object=loadshape.gso_36.1751_-79.7183_45_135 npts=96 interval=0.25 mult=[0,0,0,0,0,0,0,0,0,0,0,0,0,0,0,0,0,0,0,0,0,0,0,0,0,0,0,0,0,0,0.00512,0.20093,0.3991,0.51389,0.62682,0.70023,0.77326,0.8249,0.87452,0.9101,0.93302,0.95268,0.96884,0.97527,0.97787,0.97267,0.96354,0.94722,0.92712,0.89919,0.86786,0.83156,0.7923,0.74709,0.69958,0.64707,0.59312,0.53768,0.47879,0.41568,0.35344,0.28993,0.22894,0.16694,0.11006,0.05591,0.0319,0.02271,0.01622,0.00811,0,0,0,0,0,0,0,0,0,0,0,0,0,0,0,0,0,0,0,0,0,0,0,0,0,0]
new object=loadshape.gso_36.2120_-79.7183_35_90 npts=96 interval=0.25 mult=[0,0,0,0,0,0,0,0,0,0,0,0,0,0,0,0,0,0,0,0,0,0,0,0,0,0,0,0,0,0,0,0.14644,0.29529,0.374,0.46175,0.51045,0.55743,0.58832,0.61663,0.63334,0.64242,0.64382,0.64193,0.63908,0.63263,0.61687,0.59776,0.57304,0.54527,0.51293,0.47792,0.43842,0.39686,0.35197,0.3056,0.25746,0.20863,0.15773,0.10172,0.05185,0.05101,0.04851,0.04601,0.04301,0.04004,0.0356,0.03119,0.0225,0.01728,0.00864,0,0,0,0,0,0,0,0,0,0,0,0,0,0,0,0,0,0,0,0,0,0,0,0,0,0]
new object=loadshape.gso_36.2120_-79.7183_35_180 npts=96 interval=0.25 mult=[0,0,0,0,0,0,0,0,0,0,0,0,0,0,0,0,0,0,0,0,0,0,0,0,0,0,0,0,0,0,0,0.09576,0.20991,0.29039,0.38657,0.45759,0.53223,0.59585,0.66039,0.71568,0.76359,0.80495,0.84391,0.88415,0.92187,0.94774,0.97018,0.98521,0.9965,1.00102,1.00169,0.99418,0.9829,0.96482,0.94321,0.91498,0.8837,0.8444,0.80969,0.76009,0.70909,0.6489,0.58874,0.5194,0.45226,0.37218,0.29796,0.20326,0.09816,0.00864,0,0,0,0,0,0,0,0,0,0,0,0,0,0,0,0,0,0,0,0,0,0,0,0,0,0]
new object=loadshape.gso_36.2120_-79.7183_45_270 npts=96 interval=0.25 mult=[0,0,0,0,0,0,0,0,0,0,0,0,0,0,0,0,0,0,0,0,0,0,0,0,0,0,0,0,0,0,0,0.01494,0.02369,0.03187,0.038,0.04117,0.04445,0.0472,0.04997,0.05183,0.05919,0.06142,0.06357,0.11158,0.16644,0.22046,0.27374,0.32472,0.37417,0.42057,0.46482,0.50452,0.54143,0.57339,0.60216,0.62564,0.64562,0.65792,0.67137,0.67207,0.66893,0.65401,0.63546,0.60241,0.56623,0.50614,0.44373,0.33592,0.17637,0.00811,0,0,0,0,0,0,0,0,0,0,0,0,0,0,0,0,0,0,0,0,0,0,0,0,0,0]
new object=loadshape.gso_36.2120_-79.7183_25_90 npts=96 interval=0.25 mult=[0,0,0,0,0,0,0,0,0,0,0,0,0,0,0,0,0,0,0,0,0,0,0,0,0,0,0,0,0,0,0,0.11562,0.23535,0.30524,0.38451,0.43305,0.48132,0.51662,0.55026,0.57396,0.59175,0.60196,0.60916,0.61554,0.61865,0.61279,0.60364,0.58883,0.57088,0.54812,0.52248,0.49184,0.4588,0.42182,0.38292,0.34141,0.29866,0.25277,0.20268,0.15518,0.10848,0.06097,0.04285,0.04039,0.03797,0.03409,0.03024,0.02209,0.01811,0.00905,0,0,0,0,0,0,0,0,0,0,0,0,0,0,0,0,0,0,0,0,0,0,0,0,0,0]
new object=loadshape.gso_36.2120_-79.7183_25_180 npts=96 interval=0.25 mult=[0,0,0,0,0,0,0,0,0,0,0,0,0,0,0,0,0,0,0,0,0,0,0,0,0,0,0,0,0,0,0,0.07828,0.17244,0.24364,0.32911,0.3941,0.46275,0.52216,0.5825,0.63463,0.68103,0.72068,0.75799,0.7961,0.83176,0.85658,0.87804,0.89252,0.90335,0.90776,0.9084,0.90134,0.8906,0.87338,0.85272,0.82587,0.79606,0.75871,0.72432,0.67752,0.62936,0.57285,0.51638,0.45199,0.38981,0.31694,0.24993,0.16695,0.08055,0.00905,0,0,0,0,0,0,0,0,0,0,0,0,0,0,0,0,0,0,0,0,0,0,0,0,0,0]
new object=loadshape.gso_36.1751_-79.7183_15_135 npts=96 interval=0.25 mult=[0,0,0,0,0,0,0,0,0,0,0,0,0,0,0,0,0,0,0,0,0,0,0,0,0,0,0,0,0,0,0.0059,0.09182,0.1896,0.25883,0.33296,0.38986,0.44894,0.49722,0.54534,0.58542,0.6202,0.65026,0.67789,0.6984,0.71591,0.72749,0.73571,0.7379,0.73661,0.72839,0.71676,0.70041,0.68086,0.65534,0.627,0.59329,0.55734,0.518,0.47576,0.42808,0.37996,0.32883,0.27867,0.22471,0.17398,0.1213,0.07563,0.03247,0.01868,0.00934,0,0,0,0,0,0,0,0,0,0,0,0,0,0,0,0,0,0,0,0,0,0,0,0,0,0]
new object=loadshape.gso_36.1751_-79.7183_25_90 npts=96 interval=0.25 mult=[0,0,0,0,0,0,0,0,0,0,0,0,0,0,0,0,0,0,0,0,0,0,0,0,0,0,0,0,0,0,0.00572,0.12058,0.23899,0.31124,0.38381,0.43278,0.48162,0.51694,0.55061,0.57492,0.59332,0.60638,0.61646,0.6194,0.6191,0.61326,0.60412,0.58958,0.57187,0.54835,0.52198,0.49206,0.45968,0.42295,0.38431,0.34232,0.29911,0.25014,0.20397,0.15563,0.10807,0.06134,0.04372,0.04128,0.0389,0.03456,0.03022,0.02207,0.01811,0.00905,0,0,0,0,0,0,0,0,0,0,0,0,0,0,0,0,0,0,0,0,0,0,0,0,0,0]
new object=loadshape.gso_36.1751_-79.7183_35_90 npts=96 interval=0.25 mult=[0,0,0,0,0,0,0,0,0,0,0,0,0,0,0,0,0,0,0,0,0,0,0,0,0,0,0,0,0,0,0.00546,0.15313,0.29927,0.38157,0.46108,0.51015,0.55771,0.58862,0.61695,0.63428,0.64399,0.64848,0.64957,0.64304,0.63305,0.6173,0.5982,0.57374,0.54619,0.51311,0.47741,0.43858,0.39764,0.35299,0.30689,0.2583,0.20905,0.15358,0.10291,0.05184,0.05018,0.0485,0.04687,0.0439,0.04096,0.03607,0.03117,0.02249,0.01728,0.00864,0,0,0,0,0,0,0,0,0,0,0,0,0,0,0,0,0,0,0,0,0,0,0,0,0,0]
new object=loadshape.gso_36.2120_-79.7183_45_180 npts=96 interval=0.25 mult=[0,0,0,0,0,0,0,0,0,0,0,0,0,0,0,0,0,0,0,0,0,0,0,0,0,0,0,0,0,0,0,0.11059,0.24151,0.32904,0.43321,0.50824,0.58676,0.65279,0.71972,0.77659,0.82479,0.86671,0.90625,0.94747,0.98619,1.01239,1.03519,1.05035,1.06179,1.06631,1.06699,1.05925,1.04774,1.02931,1.00736,0.97853,0.94667,0.90651,0.87233,0.82135,0.76894,0.70677,0.64461,0.57225,0.50205,0.417,0.33767,0.23388,0.11308,0.00811,0,0,0,0,0,0,0,0,0,0,0,0,0,0,0,0,0,0,0,0,0,0,0,0,0,0]
new object=loadshape.gso_36.2120_-79.7183_25_270 npts=96 interval=0.25 mult=[0,0,0,0,0,0,0,0,0,0,0,0,0,0,0,0,0,0,0,0,0,0,0,0,0,0,0,0,0,0,0,0.01668,0.02313,0.03026,0.03516,0.03707,0.03911,0.04073,0.05846,0.1054,0.15784,0.20458,0.25074,0.29652,0.34182,0.38326,0.42294,0.45883,0.49238,0.52181,0.54849,0.5698,0.58799,0.60089,0.61054,0.61496,0.61613,0.61014,0.60421,0.5883,0.56959,0.54131,0.51091,0.47002,0.42817,0.37022,0.31332,0.22794,0.11837,0.00905,0,0,0,0,0,0,0,0,0,0,0,0,0,0,0,0,0,0,0,0,0,0,0,0,0,0]
new object=loadshape.gso_36.2489_-79.7183_35_180 npts=96 interval=0.25 mult=[0,0,0,0,0,0,0,0,0,0,0,0,0,0,0,0,0,0,0,0,0,0,0,0,0,0,0,0,0,0,0,0.09233,0.20178,0.28514,0.38499,0.4566,0.53203,0.59564,0.66017,0.71483,0.76205,0.8081,0.85211,0.88853,0.92208,0.94728,0.96904,0.98406,0.99534,0.99986,1.00053,0.99303,0.98175,0.96389,0.94252,0.91367,0.8818,0.84255,0.8079,0.75813,0.70694,0.64802,0.58907,0.51973,0.45257,0.37244,0.29803,0.20307,0.09778,0.00864,0,0,0,0,0,0,0,0,0,0,0,0,0,0,0,0,0,0,0,0,0,0,0,0,0,0]
new object=loadshape.gso_36.1751_-79.7183_15_180 npts=96 interval=0.25 mult=[0,0,0,0,0,0,0,0,0,0,0,0,0,0,0,0,0,0,0,0,0,0,0,0,0,0,0,0,0,0,0.0059,0.06052,0.13324,0.19355,0.26184,0.31944,0.38072,0.43427,0.48874,0.53684,0.58113,0.62094,0.65887,0.69026,0.719,0.74208,0.76199,0.77588,0.78632,0.78955,0.78921,0.78374,0.77477,0.75911,0.74019,0.7149,0.6868,0.65656,0.62033,0.57676,0.53192,0.48172,0.43155,0.37363,0.31788,0.25369,0.19523,0.12626,0.06084,0.00934,0,0,0,0,0,0,0,0,0,0,0,0,0,0,0,0,0,0,0,0,0,0,0,0,0,0]
new object=loadshape.gso_36.1751_-79.7183_45_270 npts=96 interval=0.25 mult=[0,0,0,0,0,0,0,0,0,0,0,0,0,0,0,0,0,0,0,0,0,0,0,0,0,0,0,0,0,0,0.00512,0.01451,0.02594,0.03142,0.03706,0.04072,0.04444,0.04719,0.04996,0.05222,0.0599,0.06185,0.06372,0.11232,0.16682,0.22084,0.27413,0.32524,0.37488,0.42068,0.46427,0.50465,0.54229,0.57453,0.60358,0.62654,0.64596,0.66327,0.67285,0.6727,0.66871,0.65496,0.63756,0.60411,0.56748,0.50678,0.44393,0.33624,0.17643,0.00811,0,0,0,0,0,0,0,0,0,0,0,0,0,0,0,0,0,0,0,0,0,0,0,0,0,0]
new object=loadshape.gso_36.2120_-79.7183_15_135 npts=96 interval=0.25 mult=[0,0,0,0,0,0,0,0,0,0,0,0,0,0,0,0,0,0,0,0,0,0,0,0,0,0,0,0,0,0,0,0.08838,0.18627,0.25401,0.33369,0.39013,0.44864,0.4969,0.545,0.58448,0.61862,0.64556,0.66984,0.69408,0.71548,0.72706,0.73527,0.73712,0.7355,0.72817,0.71742,0.7002,0.6798,0.65406,0.62548,0.59233,0.55692,0.51598,0.47432,0.4275,0.38027,0.32817,0.27707,0.2233,0.17272,0.12058,0.07544,0.03234,0.01868,0.00934,0,0,0,0,0,0,0,0,0,0,0,0,0,0,0,0,0,0,0,0,0,0,0,0,0,0]
new object=loadshape.gso_36.1751_-79.7183_35_180 npts=96 interval=0.25 mult=[0,0,0,0,0,0,0,0,0,0,0,0,0,0,0,0,0,0,0,0,0,0,0,0,0,0,0,0,0,0,0.00546,0.09969,0.21339,0.29601,0.38584,0.45725,0.53243,0.59605,0.6606,0.71652,0.76513,0.81052,0.85388,0.88941,0.9221,0.94797,0.97041,0.9859,0.99765,1.00107,1.00063,0.99423,0.98404,0.96616,0.94475,0.91585,0.88392,0.85273,0.81117,0.76069,0.7088,0.64978,0.59073,0.521,0.45348,0.37282,0.29814,0.20349,0.09822,0.00864,0,0,0,0,0,0,0,0,0,0,0,0,0,0,0,0,0,0,0,0,0,0,0,0,0,0]
new object=loadshape.gso_36.1751_-79.7183_45_180 npts=96 interval=0.25 mult=[0,0,0,0,0,0,0,0,0,0,0,0,0,0,0,0,0,0,0,0,0,0,0,0,0,0,0,0,0,0,0.00512,0.1154,0.24514,0.33555,0.43249,0.50786,0.58691,0.65293,0.71986,0.77738,0.82628,0.87259,0.91688,0.95302,0.98632,1.01253,1.03532,1.05097,1.06291,1.06627,1.06579,1.0592,1.04885,1.03059,1.00882,0.97933,0.94681,0.91625,0.87375,0.82189,0.76862,0.70765,0.64661,0.57382,0.50321,0.41759,0.33783,0.23411,0.11313,0.00811,0,0,0,0,0,0,0,0,0,0,0,0,0,0,0,0,0,0,0,0,0,0,0,0,0,0]
new object=loadshape.gso_36.2120_-79.7183_45_135 npts=96 interval=0.25 mult=[0,0,0,0,0,0,0,0,0,0,0,0,0,0,0,0,0,0,0,0,0,0,0,0,0,0,0,0,0,0,0,0.19172,0.39459,0.50336,0.62748,0.70062,0.77309,0.82472,0.87434,0.90923,0.9314,0.94623,0.95752,0.96953,0.97767,0.97246,0.96333,0.94658,0.92606,0.89919,0.86885,0.83156,0.79137,0.74597,0.69825,0.64632,0.59291,0.53473,0.47756,0.41528,0.3539,0.28947,0.2276,0.16577,0.10898,0.0553,0.03191,0.02272,0.01622,0.00811,0,0,0,0,0,0,0,0,0,0,0,0,0,0,0,0,0,0,0,0,0,0,0,0,0,0]
new object=loadshape.gso_36.2120_-79.7183_15_270 npts=96 interval=0.25 mult=[0,0,0,0,0,0,0,0,0,0,0,0,0,0,0,0,0,0,0,0,0,0,0,0,0,0,0,0,0,0,0,0.0172,0.02256,0.02914,0.03351,0.03729,0.07858,0.12191,0.16748,0.21182,0.25919,0.30039,0.34043,0.38005,0.41855,0.4518,0.48286,0.5095,0.53349,0.55299,0.56954,0.5805,0.58832,0.59089,0.59031,0.58476,0.57621,0.56107,0.54526,0.52149,0.49558,0.4616,0.42636,0.38312,0.34009,0.2856,0.23385,0.16341,0.08394,0.00934,0,0,0,0,0,0,0,0,0,0,0,0,0,0,0,0,0,0,0,0,0,0,0,0,0,0]
new object=loadshape.gso_36.1751_-79.7183_35_135 npts=96 interval=0.25 mult=[0,0,0,0,0,0,0,0,0,0,0,0,0,0,0,0,0,0,0,0,0,0,0,0,0,0,0,0,0,0,0.00546,0.16907,0.33828,0.44067,0.54347,0.61329,0.6836,0.73554,0.78605,0.82418,0.85171,0.87549,0.89602,0.90746,0.91525,0.91564,0.91218,0.90174,0.88751,0.86554,0.84007,0.80957,0.77594,0.73619,0.6939,0.64634,0.59703,0.54566,0.49079,0.43118,0.37201,0.31095,0.25194,0.19095,0.13458,0.07944,0.03308,0.02249,0.01728,0.00864,0,0,0,0,0,0,0,0,0,0,0,0,0,0,0,0,0,0,0,0,0,0,0,0,0,0]
new object=loadshape.gso_36.2120_-79.7183_25_135 npts=96 interval=0.25 mult=[0,0,0,0,0,0,0,0,0,0,0,0,0,0,0,0,0,0,0,0,0,0,0,0,0,0,0,0,0,0,0,0.12676,0.26393,0.34782,0.44523,0.50909,0.57412,0.62492,0.67491,0.71391,0.74474,0.7682,0.78863,0.80929,0.82667,0.83271,0.83509,0.8305,0.82223,0.80787,0.78998,0.76526,0.73737,0.70404,0.66797,0.62732,0.58462,0.53651,0.48837,0.43482,0.3813,0.32344,0.26714,0.20905,0.15489,0.10077,0.05466,0.02209,0.01811,0.00905,0,0,0,0,0,0,0,0,0,0,0,0,0,0,0,0,0,0,0,0,0,0,0,0,0,0]
new object=loadshape.gso_36.2120_-79.7183_15_90 npts=96 interval=0.25 mult=[0,0,0,0,0,0,0,0,0,0,0,0,0,0,0,0,0,0,0,0,0,0,0,0,0,0,0,0,0,0,0,0.08155,0.16877,0.22793,0.29651,0.34356,0.39181,0.43057,0.46866,0.49877,0.52492,0.54374,0.55993,0.57542,0.58808,0.59237,0.59352,0.58912,0.58156,0.5691,0.5536,0.53276,0.5092,0.48122,0.45091,0.41723,0.38179,0.34221,0.29935,0.25624,0.21319,0.16743,0.12305,0.07909,0.03858,0.03244,0.0291,0.0215,0.01868,0.00934,0,0,0,0,0,0,0,0,0,0,0,0,0,0,0,0,0,0,0,0,0,0,0,0,0,0]
new object=loadshape.gso_36.1751_-79.7183_15_270 npts=96 interval=0.25 mult=[0,0,0,0,0,0,0,0,0,0,0,0,0,0,0,0,0,0,0,0,0,0,0,0,0,0,0,0,0,0,0.0059,0.01671,0.02478,0.02858,0.03246,0.0371,0.0789,0.12227,0.16786,0.21268,0.26052,0.30287,0.34449,0.38254,0.41904,0.45231,0.48337,0.51024,0.53448,0.55325,0.56904,0.58076,0.58935,0.59218,0.59186,0.58577,0.57668,0.56397,0.54679,0.52216,0.49535,0.46244,0.42823,0.38472,0.34141,0.28633,0.23407,0.16364,0.08401,0.00934,0,0,0,0,0,0,0,0,0,0,0,0,0,0,0,0,0,0,0,0,0,0,0,0,0,0]
new object=loadshape.gso_36.2120_-79.7183_25_225 npts=96 interval=0.25 mult=[0,0,0,0,0,0,0,0,0,0,0,0,0,0,0,0,0,0,0,0,0,0,0,0,0,0,0,0,0,0,0,0.01668,0.02313,0.05372,0.10419,0.15546,0.21246,0.26854,0.32715,0.38258,0.43792,0.48722,0.53518,0.58371,0.63093,0.67041,0.70732,0.73857,0.76672,0.78927,0.80837,0.82038,0.82872,0.83066,0.82893,0.82075,0.80911,0.78921,0.7723,0.74109,0.70735,0.66309,0.61735,0.56009,0.50301,0.42855,0.35708,0.2556,0.12963,0.00905,0,0,0,0,0,0,0,0,0,0,0,0,0,0,0,0,0,0,0,0,0,0,0,0,0,0]
new object=loadshape.gso_36.2120_-79.7183_35_225 npts=96 interval=0.25 mult=[0,0,0,0,0,0,0,0,0,0,0,0,0,0,0,0,0,0,0,0,0,0,0,0,0,0,0,0,0,0,0,0.01592,0.02351,0.03264,0.0813,0.1337,0.19253,0.25163,0.31384,0.37359,0.43365,0.4881,0.54153,0.59589,0.6493,0.69507,0.73848,0.77627,0.81107,0.84021,0.86594,0.8843,0.89892,0.90684,0.91093,0.90803,0.90141,0.88579,0.87481,0.84637,0.81494,0.77138,0.72578,0.6661,0.60589,0.52366,0.44338,0.32357,0.16478,0.00864,0,0,0,0,0,0,0,0,0,0,0,0,0,0,0,0,0,0,0,0,0,0,0,0,0,0]
new object=loadshape.gso_36.2120_-79.7183_45_90 npts=96 interval=0.25 mult=[0,0,0,0,0,0,0,0,0,0,0,0,0,0,0,0,0,0,0,0,0,0,0,0,0,0,0,0,0,0,0,0.17308,0.34676,0.43211,0.52589,0.5734,0.61782,0.64351,0.66577,0.67508,0.67541,0.66807,0.65724,0.64535,0.62961,0.6045,0.57607,0.54223,0.50551,0.46458,0.42128,0.3741,0.32528,0.27378,0.22131,0.16794,0.11445,0.0656,0.05799,0.0566,0.05524,0.05221,0.04916,0.04556,0.04198,0.03692,0.03191,0.02272,0.01622,0.00811,0,0,0,0,0,0,0,0,0,0,0,0,0,0,0,0,0,0,0,0,0,0,0,0,0,0]
new object=loadshape.gso_36.2489_-79.7183_15_180 npts=96 interval=0.25 mult=[0,0,0,0,0,0,0,0,0,0,0,0,0,0,0,0,0,0,0,0,0,0,0,0,0,0,0,0,0,0,0,0.05687,0.1255,0.18664,0.26105,0.31875,0.38015,0.43366,0.48808,0.53501,0.57807,0.61845,0.65693,0.68914,0.7187,0.74116,0.76046,0.77398,0.78404,0.7882,0.7888,0.7824,0.77251,0.75689,0.73801,0.71278,0.68473,0.65045,0.61727,0.57437,0.5302,0.48011,0.43005,0.37247,0.31701,0.25341,0.19544,0.12611,0.06053,0.00934,0,0,0,0,0,0,0,0,0,0,0,0,0,0,0,0,0,0,0,0,0,0,0,0,0,0]
new object=loadshape.gso_36.2120_-79.7183_35_270 npts=96 interval=0.25 mult=[0,0,0,0,0,0,0,0,0,0,0,0,0,0,0,0,0,0,0,0,0,0,0,0,0,0,0,0,0,0,0,0.01592,0.02351,0.03118,0.03667,0.03918,0.04181,0.04395,0.04614,0.04746,0.05462,0.10451,0.15548,0.20611,0.25692,0.30535,0.35252,0.3966,0.43873,0.47722,0.51323,0.54421,0.5722,0.595,0.61453,0.62873,0.6395,0.64275,0.64668,0.639,0.62796,0.6061,0.58132,0.54386,0.50432,0.44448,0.38399,0.28603,0.1495,0.00864,0,0,0,0,0,0,0,0,0,0,0,0,0,0,0,0,0,0,0,0,0,0,0,0,0,0]
new object=loadshape.gso_36.2120_-79.7183_15_180 npts=96 interval=0.25 mult=[0,0,0,0,0,0,0,0,0,0,0,0,0,0,0,0,0,0,0,0,0,0,0,0,0,0,0,0,0,0,0,0.05868,0.13024,0.1902,0.26258,0.31971,0.38044,0.43397,0.48841,0.53593,0.5796,0.61645,0.65107,0.68601,0.7186,0.74167,0.76157,0.77511,0.78518,0.78934,0.78995,0.78354,0.77364,0.75777,0.73862,0.71392,0.68641,0.65206,0.61882,0.57613,0.53218,0.48091,0.4297,0.37208,0.31659,0.25297,0.19503,0.12606,0.06077,0.00934,0,0,0,0,0,0,0,0,0,0,0,0,0,0,0,0,0,0,0,0,0,0,0,0,0,0]
new object=loadshape.gso_36.1751_-79.7183_25_270 npts=96 interval=0.25 mult=[0,0,0,0,0,0,0,0,0,0,0,0,0,0,0,0,0,0,0,0,0,0,0,0,0,0,0,0,0,0,0.00572,0.0162,0.02539,0.02973,0.03414,0.03658,0.03909,0.04071,0.05882,0.10621,0.15906,0.2064,0.25365,0.29846,0.34229,0.38373,0.42343,0.45952,0.4933,0.52204,0.54798,0.57002,0.58899,0.60216,0.61208,0.61596,0.61656,0.61409,0.60576,0.58897,0.56937,0.54221,0.5129,0.47168,0.42949,0.37094,0.31354,0.2282,0.11844,0.00905,0,0,0,0,0,0,0,0,0,0,0,0,0,0,0,0,0,0,0,0,0,0,0,0,0,0]
new object=loadshape.gso_36.2120_-79.7183_45_225 npts=96 interval=0.25 mult=[0,0,0,0,0,0,0,0,0,0,0,0,0,0,0,0,0,0,0,0,0,0,0,0,0,0,0,0,0,0,0,0.01494,0.02369,0.03187,0.05688,0.10895,0.16798,0.22843,0.29249,0.35487,0.41804,0.4761,0.53347,0.5921,0.65016,0.7009,0.74955,0.79277,0.83319,0.86806,0.89963,0.92378,0.94421,0.95782,0.96755,0.96996,0.9685,0.95754,0.95261,0.92771,0.89943,0.85776,0.81355,0.75311,0.69144,0.60374,0.51693,0.38221,0.19521,0.00811,0,0,0,0,0,0,0,0,0,0,0,0,0,0,0,0,0,0,0,0,0,0,0,0,0,0]
new object=loadshape.gso_36.2489_-79.7183_25_135 npts=96 interval=0.25 mult=[0,0,0,0,0,0,0,0,0,0,0,0,0,0,0,0,0,0,0,0,0,0,0,0,0,0,0,0,0,0,0,0.12206,0.25347,0.34151,0.4435,0.50799,0.57386,0.62464,0.67461,0.71296,0.74311,0.77105,0.79608,0.81314,0.82679,0.83219,0.83395,0.82936,0.8211,0.80676,0.78888,0.76418,0.73632,0.70327,0.6675,0.62636,0.58319,0.53517,0.48713,0.43336,0.3796,0.32283,0.26761,0.20958,0.15548,0.10145,0.05547,0.0226,0.01811,0.00905,0,0,0,0,0,0,0,0,0,0,0,0,0,0,0,0,0,0,0,0,0,0,0,0,0,0]
new object=loadshape.gso_36.1751_-79.7183_25_180 npts=96 interval=0.25 mult=[0,0,0,0,0,0,0,0,0,0,0,0,0,0,0,0,0,0,0,0,0,0,0,0,0,0,0,0,0,0,0.00572,0.08121,0.17571,0.2482,0.32837,0.3938,0.463,0.52242,0.58277,0.63552,0.68257,0.72578,0.767,0.80093,0.83208,0.8569,0.87837,0.89327,0.90451,0.90789,0.90749,0.90147,0.89175,0.87474,0.85429,0.82681,0.79637,0.76529,0.72583,0.67814,0.62909,0.5737,0.51831,0.45358,0.39108,0.31763,0.25012,0.16717,0.08061,0.00905,0,0,0,0,0,0,0,0,0,0,0,0,0,0,0,0,0,0,0,0,0,0,0,0,0,0]
new object=loadshape.gso_36.1751_-79.7183_35_225 npts=96 interval=0.25 mult=[0,0,0,0,0,0,0,0,0,0,0,0,0,0,0,0,0,0,0,0,0,0,0,0,0,0,0,0,0,0,0.00546,0.01546,0.02578,0.03234,0.08053,0.13343,0.19276,0.25187,0.31409,0.37437,0.43496,0.49163,0.54784,0.59947,0.64959,0.69537,0.73878,0.77692,0.8121,0.84029,0.86502,0.88439,0.90004,0.90818,0.91249,0.90896,0.90168,0.89493,0.87637,0.84705,0.81473,0.77243,0.72803,0.66788,0.60717,0.52431,0.44358,0.32389,0.16484,0.00864,0,0,0,0,0,0,0,0,0,0,0,0,0,0,0,0,0,0,0,0,0,0,0,0,0,0]
new object=loadshape.gso_36.1751_-79.7183_15_90 npts=96 interval=0.25 mult=[0,0,0,0,0,0,0,0,0,0,0,0,0,0,0,0,0,0,0,0,0,0,0,0,0,0,0,0,0,0,0.0059,0.08463,0.172,0.23216,0.29579,0.34332,0.39213,0.43092,0.46904,0.49973,0.52647,0.54783,0.56668,0.57908,0.58857,0.59287,0.59403,0.5899,0.5826,0.56936,0.55311,0.53301,0.51016,0.48243,0.45237,0.41819,0.38227,0.34108,0.30073,0.25677,0.21284,0.16794,0.12442,0.08037,0.03983,0.03292,0.02908,0.02147,0.01868,0.00934,0,0,0,0,0,0,0,0,0,0,0,0,0,0,0,0,0,0,0,0,0,0,0,0,0,0]
new object=loadshape.gso_36.2489_-79.7183_45_225 npts=96 interval=0.25 mult=[0,0,0,0,0,0,0,0,0,0,0,0,0,0,0,0,0,0,0,0,0,0,0,0,0,0,0,0,0,0,0,0.01494,0.02365,0.03136,0.05576,0.10828,0.1678,0.22825,0.29229,0.35417,0.41682,0.47749,0.53812,0.59488,0.65046,0.70062,0.74865,0.79184,0.83222,0.86706,0.8986,0.92273,0.94314,0.95693,0.96685,0.96859,0.96646,0.95549,0.95057,0.92547,0.89702,0.85668,0.81374,0.75326,0.69148,0.6036,0.51629,0.38145,0.19445,0.00811,0,0,0,0,0,0,0,0,0,0,0,0,0,0,0,0,0,0,0,0,0,0,0,0,0,0]
new object=loadshape.gso_36.1751_-79.7183_45_90 npts=96 interval=0.25 mult=[0,0,0,0,0,0,0,0,0,0,0,0,0,0,0,0,0,0,0,0,0,0,0,0,0,0,0,0,0,0,0.00512,0.18128,0.35101,0.44103,0.52525,0.57308,0.61806,0.64377,0.66605,0.67599,0.67695,0.67283,0.66502,0.64929,0.62998,0.60487,0.57645,0.54286,0.50634,0.46471,0.42077,0.37421,0.32593,0.27468,0.22247,0.16869,0.11482,0.05969,0.05875,0.0566,0.05444,0.05221,0.05001,0.04643,0.04287,0.03737,0.0319,0.02271,0.01622,0.00811,0,0,0,0,0,0,0,0,0,0,0,0,0,0,0,0,0,0,0,0,0,0,0,0,0,0]
new object=loadshape.gso_36.1751_-79.7183_25_225 npts=96 interval=0.25 mult=[0,0,0,0,0,0,0,0,0,0,0,0,0,0,0,0,0,0,0,0,0,0,0,0,0,0,0,0,0,0,0.00572,0.0162,0.02539,0.05392,0.10341,0.15521,0.21273,0.26882,0.32746,0.38342,0.4393,0.49082,0.5415,0.58729,0.63129,0.67078,0.7077,0.73929,0.7678,0.78942,0.80757,0.82053,0.82985,0.83202,0.83052,0.82173,0.80945,0.79638,0.77387,0.74177,0.70714,0.66407,0.61947,0.56181,0.50432,0.42925,0.35729,0.25588,0.1297,0.00905,0,0,0,0,0,0,0,0,0,0,0,0,0,0,0,0,0,0,0,0,0,0,0,0,0,0]
new object=loadshape.gso_36.2489_-79.7183_25_270 npts=96 interval=0.25 mult=[0,0,0,0,0,0,0,0,0,0,0,0,0,0,0,0,0,0,0,0,0,0,0,0,0,0,0,0,0,0,0,0.01668,0.02314,0.02974,0.03418,0.03661,0.03913,0.04075,0.05809,0.10459,0.15661,0.20428,0.2519,0.29743,0.34197,0.38292,0.4221,0.45795,0.49146,0.52087,0.54752,0.56881,0.58698,0.60014,0.61005,0.61393,0.61455,0.60857,0.60266,0.58648,0.56751,0.54042,0.51118,0.47031,0.42845,0.37045,0.31333,0.22767,0.11791,0.00905,0,0,0,0,0,0,0,0,0,0,0,0,0,0,0,0,0,0,0,0,0,0,0,0,0,0]
new object=loadshape.gso_36.1751_-79.7183_25_135 npts=96 interval=0.25 mult=[0,0,0,0,0,0,0,0,0,0,0,0,0,0,0,0,0,0,0,0,0,0,0,0,0,0,0,0,0,0,0.00572,0.13232,0.26773,0.35478,0.44452,0.50877,0.57438,0.6252,0.6752,0.71485,0.74637,0.77365,0.79804,0.81423,0.82703,0.83308,0.83547,0.83126,0.82336,0.80803,0.78919,0.76541,0.73842,0.7053,0.66946,0.62823,0.58498,0.53903,0.48977,0.43535,0.38094,0.32404,0.26868,0.2104,0.15611,0.10146,0.05483,0.02207,0.01811,0.00905,0,0,0,0,0,0,0,0,0,0,0,0,0,0,0,0,0,0,0,0,0,0,0,0,0,0]
new object=loadshape.gso_36.2489_-79.7183_35_90 npts=96 interval=0.25 mult=[0,0,0,0,0,0,0,0,0,0,0,0,0,0,0,0,0,0,0,0,0,0,0,0,0,0,0,0,0,0,0,0.14088,0.28348,0.36725,0.46003,0.50935,0.55715,0.58802,0.61631,0.63239,0.64085,0.64595,0.64764,0.64194,0.63274,0.61643,0.5968,0.5721,0.54435,0.51203,0.47706,0.4376,0.39608,0.35153,0.30553,0.25705,0.20791,0.15712,0.10122,0.05145,0.0502,0.04852,0.04689,0.04392,0.04099,0.03658,0.03222,0.02299,0.01728,0.00864,0,0,0,0,0,0,0,0,0,0,0,0,0,0,0,0,0,0,0,0,0,0,0,0,0,0]
new object=loadshape.gso_36.2489_-79.7183_35_135 npts=96 interval=0.25 mult=[0,0,0,0,0,0,0,0,0,0,0,0,0,0,0,0,0,0,0,0,0,0,0,0,0,0,0,0,0,0,0,0.15536,0.32062,0.42403,0.54236,0.61251,0.68316,0.73508,0.78557,0.82235,0.84842,0.87291,0.89413,0.90648,0.91513,0.91485,0.91076,0.89991,0.88529,0.86437,0.8399,0.80846,0.77394,0.73426,0.69205,0.64458,0.59536,0.54155,0.48828,0.42932,0.3708,0.30986,0.25099,0.19024,0.13405,0.0795,0.0338,0.02299,0.01728,0.00864,0,0,0,0,0,0,0,0,0,0,0,0,0,0,0,0,0,0,0,0,0,0,0,0,0,0]
new object=loadshape.gso_36.2489_-79.7183_25_90 npts=96 interval=0.25 mult=[0,0,0,0,0,0,0,0,0,0,0,0,0,0,0,0,0,0,0,0,0,0,0,0,0,0,0,0,0,0,0,0.11139,0.22611,0.29967,0.38284,0.43199,0.48102,0.51629,0.5499,0.573,0.59017,0.60382,0.61446,0.61822,0.61872,0.61231,0.60262,0.58783,0.56989,0.54715,0.52153,0.49093,0.45792,0.42127,0.38271,0.34082,0.29771,0.25192,0.20193,0.15417,0.10717,0.0606,0.04375,0.04132,0.03894,0.03511,0.03132,0.0226,0.01811,0.00905,0,0,0,0,0,0,0,0,0,0,0,0,0,0,0,0,0,0,0,0,0,0,0,0,0,0]
new object=loadshape.gso_36.2489_-79.7183_15_135 npts=96 interval=0.25 mult=[0,0,0,0,0,0,0,0,0,0,0,0,0,0,0,0,0,0,0,0,0,0,0,0,0,0,0,0,0,0,0,0.08531,0.17912,0.24932,0.33207,0.3891,0.44835,0.49658,0.54466,0.58353,0.61704,0.64769,0.67589,0.69724,0.71556,0.72653,0.73416,0.736,0.73438,0.72706,0.71632,0.69912,0.67874,0.65327,0.62499,0.59135,0.55548,0.51462,0.47305,0.426,0.37852,0.32752,0.27749,0.22379,0.17328,0.12123,0.07621,0.03268,0.01868,0.00934,0,0,0,0,0,0,0,0,0,0,0,0,0,0,0,0,0,0,0,0,0,0,0,0,0,0]
new object=loadshape.gso_36.2489_-79.7183_45_135 npts=96 interval=0.25 mult=[0,0,0,0,0,0,0,0,0,0,0,0,0,0,0,0,0,0,0,0,0,0,0,0,0,0,0,0,0,0,0,0.18422,0.37854,0.49438,0.62565,0.69947,0.77292,0.82454,0.87415,0.90835,0.92977,0.95018,0.96706,0.97441,0.97789,0.97201,0.96223,0.9455,0.92501,0.89815,0.86785,0.83059,0.79044,0.7453,0.69788,0.64547,0.59162,0.53354,0.47647,0.414,0.35239,0.28901,0.22815,0.16637,0.10964,0.05605,0.03289,0.02318,0.01622,0.00811,0,0,0,0,0,0,0,0,0,0,0,0,0,0,0,0,0,0,0,0,0,0,0,0,0,0]
new object=loadshape.gso_36.2489_-79.7183_15_90 npts=96 interval=0.25 mult=[0,0,0,0,0,0,0,0,0,0,0,0,0,0,0,0,0,0,0,0,0,0,0,0,0,0,0,0,0,0,0,0.07877,0.16236,0.22369,0.29492,0.34255,0.39149,0.43023,0.46829,0.49782,0.52338,0.54528,0.56467,0.57787,0.58814,0.59187,0.59248,0.58808,0.58053,0.56807,0.55259,0.53177,0.50824,0.48057,0.45058,0.41648,0.38065,0.34115,0.29839,0.25502,0.21168,0.16692,0.12354,0.07967,0.03927,0.03348,0.03022,0.02203,0.01868,0.00934,0,0,0,0,0,0,0,0,0,0,0,0,0,0,0,0,0,0,0,0,0,0,0,0,0,0]
new object=loadshape.gso_36.2489_-79.7183_45_270 npts=96 interval=0.25 mult=[0,0,0,0,0,0,0,0,0,0,0,0,0,0,0,0,0,0,0,0,0,0,0,0,0,0,0,0,0,0,0,0.01494,0.02365,0.03136,0.03707,0.04073,0.04446,0.04721,0.04998,0.05144,0.05847,0.06078,0.06301,0.11154,0.16671,0.2203,0.27313,0.32406,0.37347,0.41982,0.46403,0.50369,0.54057,0.57276,0.60175,0.62468,0.64408,0.65635,0.66977,0.67019,0.66679,0.65306,0.63568,0.60261,0.56635,0.50612,0.44328,0.3353,0.17568,0.00811,0,0,0,0,0,0,0,0,0,0,0,0,0,0,0,0,0,0,0,0,0,0,0,0,0,0]
new object=loadshape.gso_36.2489_-79.7183_15_270 npts=96 interval=0.25 mult=[0,0,0,0,0,0,0,0,0,0,0,0,0,0,0,0,0,0,0,0,0,0,0,0,0,0,0,0,0,0,0,0.0172,0.02258,0.02862,0.03251,0.03653,0.07826,0.12156,0.16709,0.21095,0.25786,0.3006,0.34263,0.38141,0.41864,0.45139,0.48193,0.50854,0.5325,0.55198,0.56851,0.57946,0.58728,0.59011,0.5898,0.58374,0.57469,0.55957,0.5438,0.51978,0.4936,0.46077,0.42666,0.38347,0.34045,0.28597,0.23412,0.16334,0.08361,0.00934,0,0,0,0,0,0,0,0,0,0,0,0,0,0,0,0,0,0,0,0,0,0,0,0,0,0]
new object=loadshape.gso_36.1751_-79.7183_55_180 npts=96 interval=0.25 mult=[0,0,0,0,0,0,0,0,0,0,0,0,0,0,0,0,0,0,0,0,0,0,0,0,0,0,0,0,0,0,0.00472,0.12787,0.26998,0.36561,0.46691,0.5441,0.62477,0.69134,0.75876,0.81625,0.86418,0.91011,0.9541,0.98981,1.0228,1.04861,1.07112,1.0865,1.09829,1.1015,1.10101,1.09442,1.08419,1.06608,1.04457,1.0153,0.9831,0.9539,0.91168,0.85991,0.80676,0.74554,0.68424,0.61046,0.53873,0.45057,0.36797,0.25811,0.1249,0.00747,0,0,0,0,0,0,0,0,0,0,0,0,0,0,0,0,0,0,0,0,0,0,0,0,0,0]
new object=loadshape.gso_36.2489_-79.7183_35_225 npts=96 interval=0.25 mult=[0,0,0,0,0,0,0,0,0,0,0,0,0,0,0,0,0,0,0,0,0,0,0,0,0,0,0,0,0,0,0,0.01592,0.02349,0.03194,0.08009,0.13296,0.19231,0.25139,0.31358,0.37282,0.43233,0.48948,0.54619,0.59861,0.64953,0.69471,0.73751,0.77527,0.81003,0.83915,0.86485,0.88319,0.8978,0.90592,0.91022,0.90669,0.89942,0.88382,0.87285,0.84421,0.81258,0.77034,0.726,0.66631,0.60602,0.52366,0.44299,0.32301,0.16413,0.00864,0,0,0,0,0,0,0,0,0,0,0,0,0,0,0,0,0,0,0,0,0,0,0,0,0,0]
new object=loadshape.gso_36.2489_-79.7183_45_90 npts=96 interval=0.25 mult=[0,0,0,0,0,0,0,0,0,0,0,0,0,0,0,0,0,0,0,0,0,0,0,0,0,0,0,0,0,0,0,0.16636,0.33276,0.42437,0.52416,0.5723,0.61758,0.64325,0.66549,0.67418,0.67387,0.67039,0.66318,0.64828,0.62977,0.60411,0.57518,0.54137,0.50469,0.46379,0.42054,0.37339,0.32462,0.27348,0.22138,0.16771,0.11396,0.06557,0.05797,0.0562,0.05444,0.05221,0.05,0.04643,0.04288,0.03785,0.03289,0.02318,0.01622,0.00811,0,0,0,0,0,0,0,0,0,0,0,0,0,0,0,0,0,0,0,0,0,0,0,0,0,0]