Clear

! Non-alpha-numeric, non-underscore characters in object names of original.dss have been changed by following scheme:
! . -> _dot_
! ( -> _op_
! ) -> _cp_
! - -> _dash_
! : -> _col_
! / -> _fs_
! # -> _num_

New Circuit.feeder_rdt1527_dash_rhs0_1247x 
edit object=vsource.source bus1=rdt1527_dash_rhs0_1247x pu=1.03 basekV=12.47 R1=1e-05 X1=1e-05 R0=1e-05 X0=1e-05

New object=Linecode.1P_OH_AL_4_Periwinkle_2 units=km nphases=2 Faultrate=0.1 Rmatrix=[1.7609666666666666,0.3959666666666668|0.3959666666666668,1.7609666666666666] Xmatrix=[0.6698333333333334,0.5686333333333333|0.5686333333333333,0.6698333333333334] Cmatrix=[36.92503333333334,-17.558966666666667|-17.558966666666667,36.92503333333334] normamps=115.0
New object=Linecode.1P_OH_AL_4_fs_0_Zuzara_2 units=km nphases=2 Faultrate=0.1 Rmatrix=[0.4728,0.20209999999999997|0.20209999999999997,0.4728] Xmatrix=[0.21353333333333335,0.12473333333333335|0.12473333333333335,0.21353333333333335] Cmatrix=[41.3578,-20.447400000000002|-20.447400000000002,41.3578] normamps=115.0
New object=Linecode.1P_OH_AL_2_fs_0_Rucina_2 units=km nphases=2 Faultrate=0.1 Rmatrix=[0.7166333333333332,0.28753333333333336|0.28753333333333336,0.7166333333333332] Xmatrix=[0.28883333333333333,0.1932333333333333|0.1932333333333333,0.28883333333333333] Cmatrix=[39.3595,-19.342100000000002|-19.342100000000002,39.3595] normamps=115.0
New object=Linecode.1P_UG_AL_4_fs_0_Sweetbriar_2 units=km nphases=2 Faultrate=0.1 Rmatrix=[0.5462333,0.2755333|0.2755333,0.5462333] Xmatrix=[0.2976,0.2043|0.2043,0.2976] Cmatrix=[39.3278,-18.6046|-18.6046,39.3278] normamps=301.0
New object=Linecode.1P_UG_AL_1_fs_0_Brenau_2 units=km nphases=2 Faultrate=0.1 Rmatrix=[0.9149,0.3744|0.3744,0.9149] Xmatrix=[0.4972667,0.3969667|0.3969667,0.4972667] Cmatrix=[36.4998,-16.313099999999995|-16.313099999999995,36.4998] normamps=205.0
New object=Linecode.1P_UG_AL_2_fs_0_Converse_2 units=km nphases=2 Faultrate=0.1 Rmatrix=[0.7793333,0.3503333|0.3503333,0.7793333] Xmatrix=[0.4209333,0.3231333|0.3231333,0.4209333] Cmatrix=[37.42527,-17.11183|-17.11183,37.42527] normamps=233.0
New object=Linecode.1P_OH_AL_ACSR__num_2_Sparrow_1 units=km nphases=1 Faultrate=0.1 Rmatrix=[1.0412] Xmatrix=[0.7627] Cmatrix=[7.69673] normamps=165.0
New object=Linecode.1P_UG_AL_1 units=km nphases=1 Faultrate=0.1 Rmatrix=[0.9176999999999998] Xmatrix=[0.9546999999999999] Cmatrix=[158.492] normamps=151.0
New object=Linecode.3P_UG_AL_3 units=km nphases=3 Faultrate=0.1 Rmatrix=[0.3289333,0.05923333,0.05923333|0.05923333,0.3289333,0.05923333|0.05923333,0.05923333,0.3289333] Xmatrix=[0.9076,0.6647,0.6647|0.6647,0.9076,0.6647|0.6647,0.6647,0.9076] Cmatrix=[120.289,-59.026,-59.026|-59.026,120.289,-59.026|-59.026,-59.026,120.289] normamps=295.0
New object=Linecode.3P_OH_AL_ACSR_4_fs_0_Penguin_3 units=km nphases=3 Faultrate=0.1 Rmatrix=[0.3635667,0.09006667,0.09006667|0.09006667,0.3635667,0.09006667|0.09006667,0.09006667,0.3635667] Xmatrix=[0.6385333,0.2202333,0.2202333|0.2202333,0.6385333,0.2202333|0.2202333,0.2202333,0.6385333] Cmatrix=[7.448267,-3.1846329999999994,-3.1846329999999994|-3.1846329999999994,7.448267,-3.1846329999999994|-3.1846329999999994,-3.1846329999999994,7.448267] normamps=325.0
New object=Linecode.3P_UG_AL_350kcmil_3_1 units=km nphases=3 Faultrate=0.1 Rmatrix=[0.3388667,0.1744667,0.1744667|0.1744667,0.3388667,0.1744667|0.1744667,0.1744667,0.3388667] Xmatrix=[0.5126,0.2912,0.2912|0.2912,0.5126,0.2912|0.2912,0.2912,0.5126] Cmatrix=[164.365,-81.63499999999999,-81.63499999999999|-81.63499999999999,164.365,-81.63499999999999|-81.63499999999999,-81.63499999999999,164.365] normamps=370.0
New object=Linecode.3P_OH_AL_ACSR_1033kcmil_Curlew_3 units=km nphases=3 Faultrate=0.1 Rmatrix=[0.0871,0.0296,0.0296|0.0296,0.0871,0.0296|0.0296,0.0296,0.0871] Xmatrix=[0.5382333,0.1839333,0.1839333|0.1839333,0.5382333,0.1839333|0.1839333,0.1839333,0.5382333] Cmatrix=[8.6745,-3.8842,-3.8842|-3.8842,8.6745,-3.8842|-3.8842,-3.8842,8.6745] normamps=960.0
New object=Linecode.padswitch_1 units=km nphases=1 Faultrate=0.1 Rmatrix=[0.001] Xmatrix=[0.001] Cmatrix=[3.608924] normamps=151.0
New object=Linecode.padswitch_1_1 units=km nphases=1 Faultrate=0.1 Rmatrix=[0.001] Xmatrix=[0.001] Cmatrix=[3.608924] normamps=205.0
New object=Linecode.padswitch_1_2 units=km nphases=1 Faultrate=0.1 Rmatrix=[0.001] Xmatrix=[0.001] Cmatrix=[3.608924] normamps=301.0
New object=Linecode.padswitch_1_3 units=km nphases=1 Faultrate=0.1 Rmatrix=[0.001] Xmatrix=[0.001] Cmatrix=[3.608924] normamps=165.0
New object=Linecode.padswitch_1_4 units=km nphases=1 Faultrate=0.1 Rmatrix=[0.001] Xmatrix=[0.001] Cmatrix=[3.608924] normamps=115.0
New object=Linecode.padswitch_1_5 units=km nphases=1 Faultrate=0.1 Rmatrix=[0.001] Xmatrix=[0.001] Cmatrix=[3.608924] normamps=233.0
New object=Linecode.padswitch_3 units=km nphases=3 Faultrate=0.1 Rmatrix=[0.001,0.0,0.0|0.0,0.001,0.0|0.0,0.0,0.001] Xmatrix=[0.001,0.0,0.0|0.0,0.001,0.0|0.0,0.0,0.001] Cmatrix=[3.499563,-0.1093613,-0.1093613|-0.1093613,3.499563,-0.1093613|-0.1093613,-0.1093613,3.499563] normamps=295.0
New object=Linecode.padswitch_3_1 units=km nphases=3 Faultrate=0.1 Rmatrix=[0.001,0.0,0.0|0.0,0.001,0.0|0.0,0.0,0.001] Xmatrix=[0.001,0.0,0.0|0.0,0.001,0.0|0.0,0.0,0.001] Cmatrix=[3.499563,-0.1093613,-0.1093613|-0.1093613,3.499563,-0.1093613|-0.1093613,-0.1093613,3.499563] normamps=301.0
New object=Linecode.padswitch_3_8 units=km nphases=3 Faultrate=0.1 Rmatrix=[0.001,0.0,0.0|0.0,0.001,0.0|0.0,0.0,0.001] Xmatrix=[0.001,0.0,0.0|0.0,0.001,0.0|0.0,0.0,0.001] Cmatrix=[3.499563,-0.1093613,-0.1093613|-0.1093613,3.499563,-0.1093613|-0.1093613,-0.1093613,3.499563] normamps=205.0
New object=Linecode.padswitch_3_4 units=km nphases=3 Faultrate=0.1 Rmatrix=[0.001,0.0,0.0|0.0,0.001,0.0|0.0,0.0,0.001] Xmatrix=[0.001,0.0,0.0|0.0,0.001,0.0|0.0,0.0,0.001] Cmatrix=[3.499563,-0.1093613,-0.1093613|-0.1093613,3.499563,-0.1093613|-0.1093613,-0.1093613,3.499563] normamps=325.0
New object=Linecode.padswitch_3_6 units=km nphases=3 Faultrate=0.1 Rmatrix=[0.001,0.0,0.0|0.0,0.001,0.0|0.0,0.0,0.001] Xmatrix=[0.001,0.0,0.0|0.0,0.001,0.0|0.0,0.0,0.001] Cmatrix=[3.499563,-0.1093613,-0.1093613|-0.1093613,3.499563,-0.1093613|-0.1093613,-0.1093613,3.499563] normamps=151.0
New object=Linecode.padswitch_3_9 units=km nphases=3 Faultrate=0.1 Rmatrix=[0.001,0.0,0.0|0.0,0.001,0.0|0.0,0.0,0.001] Xmatrix=[0.001,0.0,0.0|0.0,0.001,0.0|0.0,0.0,0.001] Cmatrix=[3.499563,-0.1093613,-0.1093613|-0.1093613,3.499563,-0.1093613|-0.1093613,-0.1093613,3.499563] normamps=233.0
New object=Linecode.padswitch_3_7 units=km nphases=3 Faultrate=0.1 Rmatrix=[0.001,0.0,0.0|0.0,0.001,0.0|0.0,0.0,0.001] Xmatrix=[0.001,0.0,0.0|0.0,0.001,0.0|0.0,0.0,0.001] Cmatrix=[3.499563,-0.1093613,-0.1093613|-0.1093613,3.499563,-0.1093613|-0.1093613,-0.1093613,3.499563] normamps=115.0
New object=Linecode.padswitch_3_10 units=km nphases=3 Faultrate=0.1 Rmatrix=[0.001,0.0,0.0|0.0,0.001,0.0|0.0,0.0,0.001] Xmatrix=[0.001,0.0,0.0|0.0,0.001,0.0|0.0,0.0,0.001] Cmatrix=[3.499563,-0.1093613,-0.1093613|-0.1093613,3.499563,-0.1093613|-0.1093613,-0.1093613,3.499563] normamps=165.0
New object=Linecode.padswitch_3_3 units=km nphases=3 Faultrate=0.1 Rmatrix=[0.001,0.0,0.0|0.0,0.001,0.0|0.0,0.0,0.001] Xmatrix=[0.001,0.0,0.0|0.0,0.001,0.0|0.0,0.0,0.001] Cmatrix=[3.499563,-0.1093613,-0.1093613|-0.1093613,3.499563,-0.1093613|-0.1093613,-0.1093613,3.499563] normamps=370.0
New object=Linecode.elbswitch_3 units=km nphases=3 Faultrate=0.1 Rmatrix=[0.001,0.0,0.0|0.0,0.001,0.0|0.0,0.0,0.001] Xmatrix=[0.001,0.0,0.0|0.0,0.001,0.0|0.0,0.0,0.001] Cmatrix=[3.499563,-0.1093613,-0.1093613|-0.1093613,3.499563,-0.1093613|-0.1093613,-0.1093613,3.499563] normamps=325.0
New object=Linecode.fuse_1_3 units=km nphases=1 Faultrate=0.1 Rmatrix=[0.001] Xmatrix=[0.001] Cmatrix=[3.4] normamps=325.0
New object=Linecode.fuse_1_4 units=km nphases=1 Faultrate=0.1 Rmatrix=[0.001] Xmatrix=[0.001] Cmatrix=[3.4] normamps=165.0
New object=Linecode.fuse_1_6 units=km nphases=1 Faultrate=0.1 Rmatrix=[0.001] Xmatrix=[0.001] Cmatrix=[3.4] normamps=115.0
New object=Linecode.fuse_1_2 units=km nphases=1 Faultrate=0.1 Rmatrix=[0.001] Xmatrix=[0.001] Cmatrix=[3.4] normamps=151.0
New object=Linecode.fuse_1_5 units=km nphases=1 Faultrate=0.1 Rmatrix=[0.001] Xmatrix=[0.001] Cmatrix=[3.4] normamps=205.0
New object=Linecode.fuse_1 units=km nphases=1 Faultrate=0.1 Rmatrix=[0.001] Xmatrix=[0.001] Cmatrix=[3.4] normamps=295.0
New object=Linecode.fuse_1_8 units=km nphases=1 Faultrate=0.1 Rmatrix=[0.001] Xmatrix=[0.001] Cmatrix=[3.4] normamps=370.0
New object=Linecode.fuse_1_1 units=km nphases=1 Faultrate=0.1 Rmatrix=[0.001] Xmatrix=[0.001] Cmatrix=[3.4] normamps=233.0
New object=Linecode.recloser_3 units=km nphases=3 Faultrate=0.1 Rmatrix=[0.001,0.0,0.0|0.0,0.001,0.0|0.0,0.0,0.001] Xmatrix=[0.001,0.0,0.0|0.0,0.001,0.0|0.0,0.0,0.001] Cmatrix=[3.499563,-0.1093613,-0.1093613|-0.1093613,3.499563,-0.1093613|-0.1093613,-0.1093613,3.499563] normamps=115.0
New object=Linecode.goab_disswitch_3 units=km nphases=3 Faultrate=0.1 Rmatrix=[0.001,0.0,0.0|0.0,0.001,0.0|0.0,0.0,0.001] Xmatrix=[0.001,0.0,0.0|0.0,0.001,0.0|0.0,0.0,0.001] Cmatrix=[3.499563,-0.1093613,-0.1093613|-0.1093613,3.499563,-0.1093613|-0.1093613,-0.1093613,3.499563] normamps=325.0
New object=Linecode.goab_disswitch_3_1 units=km nphases=3 Faultrate=0.1 Rmatrix=[0.001,0.0,0.0|0.0,0.001,0.0|0.0,0.0,0.001] Xmatrix=[0.001,0.0,0.0|0.0,0.001,0.0|0.0,0.0,0.001] Cmatrix=[3.499563,-0.1093613,-0.1093613|-0.1093613,3.499563,-0.1093613|-0.1093613,-0.1093613,3.499563] normamps=115.0
New object=Linecode.recloser_3_1 units=km nphases=3 Faultrate=0.1 Rmatrix=[0.001,0.0,0.0|0.0,0.001,0.0|0.0,0.0,0.001] Xmatrix=[0.001,0.0,0.0|0.0,0.001,0.0|0.0,0.0,0.001] Cmatrix=[3.499563,-0.1093613,-0.1093613|-0.1093613,3.499563,-0.1093613|-0.1093613,-0.1093613,3.499563] normamps=325.0

New object=Line.l_op_r_col_p1rlv1359_dash_rdt793lv_cp_ Units=km Length=0.001 bus1=rdt793lv.1.2 bus2=p1rlv1359.1.2 switch=n enabled=y phases=2 Linecode=1P_OH_AL_4_Periwinkle_2
New object=Line.l_op_r_col_p1rlv1360_dash_rdt794lv_cp_ Units=km Length=0.0555307 bus1=rdt794lv.1.2 bus2=p1rlv1360.1.2 switch=n enabled=y phases=2 Linecode=1P_OH_AL_4_fs_0_Zuzara_2
New object=Line.l_op_r_col_p1rlv1361_dash_rdt794lv_cp_ Units=km Length=0.0116259 bus1=rdt794lv.1.2 bus2=p1rlv1361.1.2 switch=n enabled=y phases=2 Linecode=1P_OH_AL_2_fs_0_Rucina_2
New object=Line.l_op_r_col_p1rlv1362_dash_rdt794lv_cp_ Units=km Length=0.0573582 bus1=rdt794lv.1.2 bus2=p1rlv1362.1.2 switch=n enabled=y phases=2 Linecode=1P_OH_AL_4_fs_0_Zuzara_2
New object=Line.l_op_r_col_p1rlv1363_dash_rdt794lv_cp_ Units=km Length=0.0310381 bus1=rdt794lv.1.2 bus2=p1rlv1363.1.2 switch=n enabled=y phases=2 Linecode=1P_OH_AL_4_fs_0_Zuzara_2
New object=Line.l_op_r_col_p1rlv1364_dash_rdt794lv_cp_ Units=km Length=0.0300463 bus1=rdt794lv.1.2 bus2=p1rlv1364.1.2 switch=n enabled=y phases=2 Linecode=1P_OH_AL_4_fs_0_Zuzara_2
New object=Line.l_op_r_col_p1rlv1365_dash_rdt795lv_cp_ Units=km Length=0.0638579 bus1=rdt795lv.1.2 bus2=p1rlv1365.1.2 switch=n enabled=y phases=2 Linecode=1P_OH_AL_4_fs_0_Zuzara_2
New object=Line.l_op_r_col_p1rlv1367_dash_rdt797lv_cp_ Units=km Length=0.0944191 bus1=rdt797lv.1.2 bus2=p1rlv1367.1.2 switch=n enabled=y phases=2 Linecode=1P_OH_AL_4_fs_0_Zuzara_2
New object=Line.l_op_r_col_p1rlv1904_dash_rdt798lv_cp_ Units=km Length=0.0400051 bus1=rdt798lv.1.2 bus2=p1rlv1904.1.2 switch=n enabled=y phases=2 Linecode=1P_OH_AL_4_fs_0_Zuzara_2
New object=Line.l_op_r_col_p1rlv1368_dash_rdm1368_cp_ Units=km Length=0.0998495 bus1=rdm1368.1.2 bus2=p1rlv1368.1.2 switch=n enabled=y phases=2 Linecode=1P_OH_AL_4_fs_0_Zuzara_2
New object=Line.l_op_r_col_p1rlv1905_dash_rdm1368_cp_ Units=km Length=0.0741747 bus1=rdm1368.1.2 bus2=p1rlv1905.1.2 switch=n enabled=y phases=2 Linecode=1P_OH_AL_4_fs_0_Zuzara_2
New object=Line.l_op_r_col_rdm1368_dash_rdt798lv_cp_ Units=km Length=0.0136689 bus1=rdt798lv.1.2 bus2=rdm1368.1.2 switch=n enabled=y phases=2 Linecode=1P_OH_AL_2_fs_0_Rucina_2
New object=Line.l_op_r_col_p1rlv1906_dash_rdm1371_cp_ Units=km Length=0.0839823 bus1=rdm1371.1.2 bus2=p1rlv1906.1.2 switch=n enabled=y phases=2 Linecode=1P_OH_AL_4_fs_0_Zuzara_2
New object=Line.l_op_r_col_rdm1371_dash_rdt798lv_cp_ Units=km Length=0.0182684 bus1=rdt798lv.1.2 bus2=rdm1371.1.2 switch=n enabled=y phases=2 Linecode=1P_OH_AL_2_fs_0_Rucina_2
New object=Line.l_op_r_col_p1rlv1372_dash_rdt800lv_cp_ Units=km Length=0.0386918 bus1=rdt800lv.1.2 bus2=p1rlv1372.1.2 switch=n enabled=y phases=2 Linecode=1P_UG_AL_4_fs_0_Sweetbriar_2
New object=Line.l_op_r_col_p1rlv1863_dash_rdt1110lv_cp_ Units=km Length=0.0918124 bus1=rdt1110lv.1.2 bus2=p1rlv1863.1.2 switch=n enabled=y phases=2 Linecode=1P_UG_AL_1_fs_0_Brenau_2
New object=Line.l_op_r_col_p1rlv1862_dash_rdm1866_cp_ Units=km Length=0.0412737 bus1=rdm1866.1.2 bus2=p1rlv1862.1.2 switch=n enabled=y phases=2 Linecode=1P_OH_AL_4_fs_0_Zuzara_2
New object=Line.l_op_r_col_rdm1866_dash_rdt1110lv_cp_ Units=km Length=0.0161444 bus1=rdt1110lv.1.2 bus2=rdm1866.1.2 switch=n enabled=y phases=2 Linecode=1P_OH_AL_2_fs_0_Rucina_2
New object=Line.l_op_r_col_p1rlv1864_dash_rdm1868_cp_ Units=km Length=0.0681341 bus1=rdm1868.1.2 bus2=p1rlv1864.1.2 switch=n enabled=y phases=2 Linecode=1P_OH_AL_4_fs_0_Zuzara_2
New object=Line.l_op_r_col_rdm1868_dash_rdt1110lv_cp_ Units=km Length=0.0277124 bus1=rdt1110lv.1.2 bus2=rdm1868.1.2 switch=n enabled=y phases=2 Linecode=1P_OH_AL_4_fs_0_Zuzara_2
New object=Line.l_op_r_col_p1rlv1865_dash_rdt1111lv_cp_ Units=km Length=0.0370739 bus1=rdt1111lv.1.2 bus2=p1rlv1865.1.2 switch=n enabled=y phases=2 Linecode=1P_OH_AL_4_fs_0_Zuzara_2
New object=Line.l_op_r_col_p1rlv1868_dash_rdt1114lv_cp_ Units=km Length=0.001 bus1=rdt1114lv.1.2 bus2=p1rlv1868.1.2 switch=n enabled=y phases=2 Linecode=1P_OH_AL_4_Periwinkle_2
New object=Line.l_op_r_col_p1rlv1869_dash_rdt1115lv_cp_ Units=km Length=0.001 bus1=rdt1115lv.1.2 bus2=p1rlv1869.1.2 switch=n enabled=y phases=2 Linecode=1P_UG_AL_1_fs_0_Brenau_2
New object=Line.l_op_r_col_p1rlv1870_dash_rdm1874_cp_ Units=km Length=0.0441275 bus1=rdm1874.1.2 bus2=p1rlv1870.1.2 switch=n enabled=y phases=2 Linecode=1P_OH_AL_4_fs_0_Zuzara_2
New object=Line.l_op_r_col_rdm1874_dash_rdt1116lv_cp_ Units=km Length=0.0160778 bus1=rdt1116lv.1.2 bus2=rdm1874.1.2 switch=n enabled=y phases=2 Linecode=1P_OH_AL_2_fs_0_Rucina_2
New object=Line.l_op_r_col_p1rlv1871_dash_rdm1875_cp_ Units=km Length=0.0696996 bus1=rdm1875.1.2 bus2=p1rlv1871.1.2 switch=n enabled=y phases=2 Linecode=1P_OH_AL_4_fs_0_Zuzara_2
New object=Line.l_op_r_col_rdm1875_dash_rdt1116lv_cp_ Units=km Length=0.0160875 bus1=rdt1116lv.1.2 bus2=rdm1875.1.2 switch=n enabled=y phases=2 Linecode=1P_OH_AL_2_fs_0_Rucina_2
New object=Line.l_op_r_col_p1rlv1872_dash_rdm1876_cp_ Units=km Length=0.0947969 bus1=rdm1876.1.2 bus2=p1rlv1872.1.2 switch=n enabled=y phases=2 Linecode=1P_OH_AL_4_fs_0_Zuzara_2
New object=Line.l_op_r_col_rdm1876_dash_rdt1117lv_cp_ Units=km Length=0.0193076 bus1=rdt1117lv.1.2 bus2=rdm1876.1.2 switch=n enabled=y phases=2 Linecode=1P_OH_AL_2_fs_0_Rucina_2
New object=Line.l_op_r_col_p1rlv1873_dash_rdm1877_cp_ Units=km Length=0.0782976 bus1=rdm1877.1.2 bus2=p1rlv1873.1.2 switch=n enabled=y phases=2 Linecode=1P_OH_AL_4_fs_0_Zuzara_2
New object=Line.l_op_r_col_rdm1877_dash_rdt1117lv_cp_ Units=km Length=0.019316 bus1=rdt1117lv.1.2 bus2=rdm1877.1.2 switch=n enabled=y phases=2 Linecode=1P_OH_AL_2_fs_0_Rucina_2
New object=Line.l_op_r_col_p1rlv1874_dash_rdt1118lv_cp_ Units=km Length=0.0302837 bus1=rdt1118lv.1.2 bus2=p1rlv1874.1.2 switch=n enabled=y phases=2 Linecode=1P_OH_AL_4_fs_0_Zuzara_2
New object=Line.l_op_r_col_p1rlv1875_dash_rdt1119lv_cp_ Units=km Length=0.039782 bus1=rdt1119lv.1.2 bus2=p1rlv1875.1.2 switch=n enabled=y phases=2 Linecode=1P_OH_AL_4_fs_0_Zuzara_2
New object=Line.l_op_r_col_p1rlv1876_dash_rdt1119lv_cp_ Units=km Length=0.0628104 bus1=rdt1119lv.1.2 bus2=p1rlv1876.1.2 switch=n enabled=y phases=2 Linecode=1P_OH_AL_4_fs_0_Zuzara_2
New object=Line.l_op_r_col_p1rlv1877_dash_rdm1881_cp_ Units=km Length=0.0967 bus1=rdm1881.1.2 bus2=p1rlv1877.1.2 switch=n enabled=y phases=2 Linecode=1P_OH_AL_4_fs_0_Zuzara_2
New object=Line.l_op_r_col_rdm1881_dash_rdt1119lv_cp_ Units=km Length=0.019316 bus1=rdt1119lv.1.2 bus2=rdm1881.1.2 switch=n enabled=y phases=2 Linecode=1P_OH_AL_2_fs_0_Rucina_2
New object=Line.l_op_r_col_p1rlv1878_dash_rdt1120lv_cp_ Units=km Length=0.014846 bus1=rdt1120lv.1.2 bus2=p1rlv1878.1.2 switch=n enabled=y phases=2 Linecode=1P_OH_AL_2_fs_0_Rucina_2
New object=Line.l_op_r_col_p1rlv1879_dash_rdt1120lv_cp_ Units=km Length=0.001 bus1=rdt1120lv.1.2 bus2=p1rlv1879.1.2 switch=n enabled=y phases=2 Linecode=1P_OH_AL_4_Periwinkle_2
New object=Line.l_op_r_col_p1rlv1880_dash_rdt1120lv_cp_ Units=km Length=0.014281 bus1=rdt1120lv.1.2 bus2=p1rlv1880.1.2 switch=n enabled=y phases=2 Linecode=1P_OH_AL_2_fs_0_Rucina_2
New object=Line.l_op_r_col_p1rlv1881_dash_rdt1121lv_cp_ Units=km Length=0.0243911 bus1=rdt1121lv.1.2 bus2=p1rlv1881.1.2 switch=n enabled=y phases=2 Linecode=1P_OH_AL_2_fs_0_Rucina_2
New object=Line.l_op_r_col_p1rlv1882_dash_rdt1121lv_cp_ Units=km Length=0.00389787 bus1=rdt1121lv.1.2 bus2=p1rlv1882.1.2 switch=n enabled=y phases=2 Linecode=1P_OH_AL_4_Periwinkle_2
New object=Line.l_op_r_col_p1rlv1883_dash_rdt1121lv_cp_ Units=km Length=0.028201 bus1=rdt1121lv.1.2 bus2=p1rlv1883.1.2 switch=n enabled=y phases=2 Linecode=1P_OH_AL_4_fs_0_Zuzara_2
New object=Line.l_op_r_col_p1rlv1888_dash_rdt1124lv_cp_ Units=km Length=0.001 bus1=rdt1124lv.1.2 bus2=p1rlv1888.1.2 switch=n enabled=y phases=2 Linecode=1P_OH_AL_4_Periwinkle_2
New object=Line.l_op_r_col_p1rlv1889_dash_rdt1125lv_cp_ Units=km Length=0.0314263 bus1=rdt1125lv.1.2 bus2=p1rlv1889.1.2 switch=n enabled=y phases=2 Linecode=1P_OH_AL_4_fs_0_Zuzara_2
New object=Line.l_op_r_col_p1rlv1890_dash_rdt1125lv_cp_ Units=km Length=0.00844213 bus1=rdt1125lv.1.2 bus2=p1rlv1890.1.2 switch=n enabled=y phases=2 Linecode=1P_OH_AL_2_fs_0_Rucina_2
New object=Line.l_op_r_col_p1rlv1891_dash_rdt1125lv_cp_ Units=km Length=0.023029 bus1=rdt1125lv.1.2 bus2=p1rlv1891.1.2 switch=n enabled=y phases=2 Linecode=1P_OH_AL_2_fs_0_Rucina_2
New object=Line.l_op_r_col_p1rlv1892_dash_rdt1126lv_cp_ Units=km Length=0.0171313 bus1=rdt1126lv.1.2 bus2=p1rlv1892.1.2 switch=n enabled=y phases=2 Linecode=1P_OH_AL_2_fs_0_Rucina_2
New object=Line.l_op_r_col_p1rlv1893_dash_rdt1127lv_cp_ Units=km Length=0.0470495 bus1=rdt1127lv.1.2 bus2=p1rlv1893.1.2 switch=n enabled=y phases=2 Linecode=1P_OH_AL_4_fs_0_Zuzara_2
New object=Line.l_op_r_col_p1rlv1894_dash_rdt1128lv_cp_ Units=km Length=0.0673578 bus1=rdt1128lv.1.2 bus2=p1rlv1894.1.2 switch=n enabled=y phases=2 Linecode=1P_OH_AL_4_fs_0_Zuzara_2
New object=Line.l_op_r_col_p1rlv1895_dash_rdt1129lv_cp_ Units=km Length=0.0112612 bus1=rdt1129lv.1.2 bus2=p1rlv1895.1.2 switch=n enabled=y phases=2 Linecode=1P_OH_AL_2_fs_0_Rucina_2
New object=Line.l_op_r_col_p1rlv1896_dash_rdt1130lv_cp_ Units=km Length=0.06946540000000001 bus1=rdt1130lv.1.2 bus2=p1rlv1896.1.2 switch=n enabled=y phases=2 Linecode=1P_OH_AL_4_fs_0_Zuzara_2
New object=Line.l_op_r_col_p1rlv1897_dash_rdt1131lv_cp_ Units=km Length=0.0336707 bus1=rdt1131lv.1.2 bus2=p1rlv1897.1.2 switch=n enabled=y phases=2 Linecode=1P_OH_AL_4_fs_0_Zuzara_2
New object=Line.l_op_r_col_p1rlv1898_dash_rdm1902_cp_ Units=km Length=0.0161159 bus1=rdm1902.1.2 bus2=p1rlv1898.1.2 switch=n enabled=y phases=2 Linecode=1P_OH_AL_2_fs_0_Rucina_2
New object=Line.l_op_r_col_rdm1902_dash_rdt1131lv_cp_ Units=km Length=0.0159021 bus1=rdt1131lv.1.2 bus2=rdm1902.1.2 switch=n enabled=y phases=2 Linecode=1P_OH_AL_2_fs_0_Rucina_2
New object=Line.l_op_r_col_p1rlv1899_dash_rdt1132lv_cp_ Units=km Length=0.0477475 bus1=rdt1132lv.1.2 bus2=p1rlv1899.1.2 switch=n enabled=y phases=2 Linecode=1P_OH_AL_4_fs_0_Zuzara_2
New object=Line.l_op_r_col_p1rlv1900_dash_rdt1133lv_cp_ Units=km Length=0.0043960200000000005 bus1=rdt1133lv.1.2 bus2=p1rlv1900.1.2 switch=n enabled=y phases=2 Linecode=1P_OH_AL_2_fs_0_Rucina_2
New object=Line.l_op_r_col_p1rlv1901_dash_rdt1134lv_cp_ Units=km Length=0.0421201 bus1=rdt1134lv.1.2 bus2=p1rlv1901.1.2 switch=n enabled=y phases=2 Linecode=1P_OH_AL_4_fs_0_Zuzara_2
New object=Line.l_op_r_col_p1rlv1902_dash_rdt1135lv_cp_ Units=km Length=0.0474181 bus1=rdt1135lv.1.2 bus2=p1rlv1902.1.2 switch=n enabled=y phases=2 Linecode=1P_OH_AL_4_fs_0_Zuzara_2
New object=Line.l_op_r_col_p1rlv1903_dash_rdt1136lv_cp_ Units=km Length=0.0197766 bus1=rdt1136lv.1.2 bus2=p1rlv1903.1.2 switch=n enabled=y phases=2 Linecode=1P_OH_AL_2_fs_0_Rucina_2
New object=Line.l_op_r_col_p1rlv1907_dash_rdt1137lv_cp_ Units=km Length=0.001 bus1=rdt1137lv.1.2 bus2=p1rlv1907.1.2 switch=n enabled=y phases=2 Linecode=1P_OH_AL_4_Periwinkle_2
New object=Line.l_op_r_col_p1rlv1908_dash_rdt1138lv_cp_ Units=km Length=0.001 bus1=rdt1138lv.1.2 bus2=p1rlv1908.1.2 switch=n enabled=y phases=2 Linecode=1P_OH_AL_4_Periwinkle_2
New object=Line.l_op_r_col_p1rlv1912_dash_rdm1911_cp_ Units=km Length=0.0212665 bus1=rdm1911.1.2 bus2=p1rlv1912.1.2 switch=n enabled=y phases=2 Linecode=1P_OH_AL_2_fs_0_Rucina_2
New object=Line.l_op_r_col_p1rlv1909_dash_rdm1910_cp_ Units=km Length=0.0329383 bus1=rdm1910.1.2 bus2=p1rlv1909.1.2 switch=n enabled=y phases=2 Linecode=1P_OH_AL_4_fs_0_Zuzara_2
New object=Line.l_op_r_col_rdm1910_dash_rdm1911_cp_ Units=km Length=0.0430685 bus1=rdm1911.1.2 bus2=rdm1910.1.2 switch=n enabled=y phases=2 Linecode=1P_OH_AL_4_fs_0_Zuzara_2
New object=Line.l_op_r_col_rdm1911_dash_rdt1139lv_cp_ Units=km Length=0.0154819 bus1=rdt1139lv.1.2 bus2=rdm1911.1.2 switch=n enabled=y phases=2 Linecode=1P_OH_AL_2_fs_0_Rucina_2
New object=Line.l_op_r_col_p1rlv1913_dash_rdm1912_cp_ Units=km Length=0.0188495 bus1=rdm1912.1.2 bus2=p1rlv1913.1.2 switch=n enabled=y phases=2 Linecode=1P_OH_AL_2_fs_0_Rucina_2
New object=Line.l_op_r_col_p1rlv1914_dash_rdm1913_cp_ Units=km Length=0.0043644 bus1=rdm1913.1.2 bus2=p1rlv1914.1.2 switch=n enabled=y phases=2 Linecode=1P_OH_AL_2_fs_0_Rucina_2
New object=Line.l_op_r_col_rdm1912_dash_rdm1913_cp_ Units=km Length=0.0476617 bus1=rdm1912.1.2 bus2=rdm1913.1.2 switch=n enabled=y phases=2 Linecode=1P_OH_AL_4_fs_0_Zuzara_2
New object=Line.l_op_r_col_rdm1912_dash_rdt1139lv_cp_ Units=km Length=0.0262989 bus1=rdt1139lv.1.2 bus2=rdm1912.1.2 switch=n enabled=y phases=2 Linecode=1P_OH_AL_2_fs_0_Rucina_2
New object=Line.l_op_r_col_p1rlv1910_dash_rdt1140lv_cp_ Units=km Length=0.012899600000000002 bus1=rdt1140lv.1.2 bus2=p1rlv1910.1.2 switch=n enabled=y phases=2 Linecode=1P_OH_AL_2_fs_0_Rucina_2
New object=Line.l_op_r_col_p1rlv1911_dash_rdt1140lv_cp_ Units=km Length=0.0235244 bus1=rdt1140lv.1.2 bus2=p1rlv1911.1.2 switch=n enabled=y phases=2 Linecode=1P_OH_AL_2_fs_0_Rucina_2
New object=Line.l_op_r_col_p1rlv1916_dash_rdt1141lv_cp_ Units=km Length=0.0623258 bus1=rdt1141lv.1.2 bus2=p1rlv1916.1.2 switch=n enabled=y phases=2 Linecode=1P_OH_AL_4_fs_0_Zuzara_2
New object=Line.l_op_r_col_p1rlv1915_dash_rdm1916_cp_ Units=km Length=0.0381318 bus1=rdm1916.1.2 bus2=p1rlv1915.1.2 switch=n enabled=y phases=2 Linecode=1P_UG_AL_1_fs_0_Brenau_2
New object=Line.l_op_r_col_rdm1916_dash_rdt1141lv_cp_ Units=km Length=0.0108759 bus1=rdt1141lv.1.2 bus2=rdm1916.1.2 switch=n enabled=y phases=2 Linecode=1P_OH_AL_2_fs_0_Rucina_2
New object=Line.l_op_r_col_p1rlv1917_dash_rdm1918_cp_ Units=km Length=0.100972 bus1=rdm1918.1.2 bus2=p1rlv1917.1.2 switch=n enabled=y phases=2 Linecode=1P_OH_AL_4_fs_0_Zuzara_2
New object=Line.l_op_r_col_rdm1918_dash_rdt1141lv_cp_ Units=km Length=0.0108885 bus1=rdt1141lv.1.2 bus2=rdm1918.1.2 switch=n enabled=y phases=2 Linecode=1P_OH_AL_2_fs_0_Rucina_2
New object=Line.l_op_r_col_p1rlv1918_dash_rdt1142lv_cp_ Units=km Length=0.0383289 bus1=rdt1142lv.1.2 bus2=p1rlv1918.1.2 switch=n enabled=y phases=2 Linecode=1P_OH_AL_4_fs_0_Zuzara_2
New object=Line.l_op_r_col_p1rlv1921_dash_rdt1143lv_cp_ Units=km Length=0.0854783 bus1=rdt1143lv.1.2 bus2=p1rlv1921.1.2 switch=n enabled=y phases=2 Linecode=1P_OH_AL_4_fs_0_Zuzara_2
New object=Line.l_op_r_col_p1rlv1922_dash_rdt1143lv_cp_ Units=km Length=0.05200960000000001 bus1=rdt1143lv.1.2 bus2=p1rlv1922.1.2 switch=n enabled=y phases=2 Linecode=1P_OH_AL_4_fs_0_Zuzara_2
New object=Line.l_op_r_col_p1rlv1919_dash_rdm1920_cp_ Units=km Length=0.0754892 bus1=rdm1920.1.2 bus2=p1rlv1919.1.2 switch=n enabled=y phases=2 Linecode=1P_OH_AL_4_fs_0_Zuzara_2
New object=Line.l_op_r_col_p1rlv1920_dash_rdm1920_cp_ Units=km Length=0.104674 bus1=rdm1920.1.2 bus2=p1rlv1920.1.2 switch=n enabled=y phases=2 Linecode=1P_OH_AL_4_fs_0_Zuzara_2
New object=Line.l_op_r_col_rdm1920_dash_rdt1143lv_cp_ Units=km Length=0.034073 bus1=rdt1143lv.1.2 bus2=rdm1920.1.2 switch=n enabled=y phases=2 Linecode=1P_OH_AL_4_fs_0_Zuzara_2
New object=Line.l_op_r_col_p1rlv1923_dash_rdm1924_cp_ Units=km Length=0.0831555 bus1=rdm1924.1.2 bus2=p1rlv1923.1.2 switch=n enabled=y phases=2 Linecode=1P_OH_AL_4_fs_0_Zuzara_2
New object=Line.l_op_r_col_rdm1924_dash_rdt1143lv_cp_ Units=km Length=0.0340865 bus1=rdt1143lv.1.2 bus2=rdm1924.1.2 switch=n enabled=y phases=2 Linecode=1P_OH_AL_4_fs_0_Zuzara_2
New object=Line.l_op_r_col_p1rlv1924_dash_rdt1144lv_cp_ Units=km Length=0.001 bus1=rdt1144lv.1.2 bus2=p1rlv1924.1.2 switch=n enabled=y phases=2 Linecode=1P_OH_AL_4_Periwinkle_2
New object=Line.l_op_r_col_p1rlv1925_dash_rdt1145lv_cp_ Units=km Length=0.028217400000000004 bus1=rdt1145lv.1.2 bus2=p1rlv1925.1.2 switch=n enabled=y phases=2 Linecode=1P_OH_AL_4_fs_0_Zuzara_2
New object=Line.l_op_r_col_p1rlv1926_dash_rdt1145lv_cp_ Units=km Length=0.028217400000000004 bus1=rdt1145lv.1.2 bus2=p1rlv1926.1.2 switch=n enabled=y phases=2 Linecode=1P_OH_AL_4_fs_0_Zuzara_2
New object=Line.l_op_r_col_p1rlv1928_dash_rdt1146lv_cp_ Units=km Length=0.0885065 bus1=rdt1146lv.1.2 bus2=p1rlv1928.1.2 switch=n enabled=y phases=2 Linecode=1P_OH_AL_4_fs_0_Zuzara_2
New object=Line.l_op_r_col_p1rlv1931_dash_rdt1146lv_cp_ Units=km Length=0.109962 bus1=rdt1146lv.1.2 bus2=p1rlv1931.1.2 switch=n enabled=y phases=2 Linecode=1P_OH_AL_4_fs_0_Zuzara_2
New object=Line.l_op_r_col_p1rlv1932_dash_rdt1146lv_cp_ Units=km Length=0.143148 bus1=rdt1146lv.1.2 bus2=p1rlv1932.1.2 switch=n enabled=y phases=2 Linecode=1P_OH_AL_4_fs_0_Zuzara_2
New object=Line.l_op_r_col_p1rlv1929_dash_rdm1930_cp_ Units=km Length=0.0731915 bus1=rdm1930.1.2 bus2=p1rlv1929.1.2 switch=n enabled=y phases=2 Linecode=1P_OH_AL_4_fs_0_Zuzara_2
New object=Line.l_op_r_col_p1rlv1930_dash_rdm1930_cp_ Units=km Length=0.0767618 bus1=rdm1930.1.2 bus2=p1rlv1930.1.2 switch=n enabled=y phases=2 Linecode=1P_OH_AL_4_fs_0_Zuzara_2
New object=Line.l_op_r_col_rdm1930_dash_rdt1146lv_cp_ Units=km Length=0.0182279 bus1=rdt1146lv.1.2 bus2=rdm1930.1.2 switch=n enabled=y phases=2 Linecode=1P_OH_AL_2_fs_0_Rucina_2
New object=Line.l_op_r_col_p1rlv1933_dash_rdm1934_cp_ Units=km Length=0.00837055 bus1=rdm1934.1.2 bus2=p1rlv1933.1.2 switch=n enabled=y phases=2 Linecode=1P_OH_AL_2_fs_0_Rucina_2
New object=Line.l_op_r_col_p1rlv1927_dash_rdm1928_cp_ Units=km Length=0.0595902 bus1=rdm1928.1.2 bus2=p1rlv1927.1.2 switch=n enabled=y phases=2 Linecode=1P_OH_AL_4_fs_0_Zuzara_2
New object=Line.l_op_r_col_rdm1928_dash_rdm1934_cp_ Units=km Length=0.018217900000000002 bus1=rdm1934.1.2 bus2=rdm1928.1.2 switch=n enabled=y phases=2 Linecode=1P_OH_AL_2_fs_0_Rucina_2
New object=Line.l_op_r_col_rdm1934_dash_rdt1146lv_cp_ Units=km Length=0.018217900000000002 bus1=rdt1146lv.1.2 bus2=rdm1934.1.2 switch=n enabled=y phases=2 Linecode=1P_OH_AL_2_fs_0_Rucina_2
New object=Line.l_op_r_col_p1rlv1934_dash_rdt1147lv_cp_ Units=km Length=0.001 bus1=rdt1147lv.1.2 bus2=p1rlv1934.1.2 switch=n enabled=y phases=2 Linecode=1P_UG_AL_4_fs_0_Sweetbriar_2
New object=Line.l_op_r_col_p1rlv1936_dash_rdt1149lv_cp_ Units=km Length=0.001 bus1=rdt1149lv.1.2 bus2=p1rlv1936.1.2 switch=n enabled=y phases=2 Linecode=1P_UG_AL_1_fs_0_Brenau_2
New object=Line.l_op_r_col_p1rlv1937_dash_rdt1150lv_cp_ Units=km Length=0.099288 bus1=rdt1150lv.1.2 bus2=p1rlv1937.1.2 switch=n enabled=y phases=2 Linecode=1P_OH_AL_4_fs_0_Zuzara_2
New object=Line.l_op_r_col_p1rlv1938_dash_rdt1150lv_cp_ Units=km Length=0.0798413 bus1=rdt1150lv.1.2 bus2=p1rlv1938.1.2 switch=n enabled=y phases=2 Linecode=1P_OH_AL_4_fs_0_Zuzara_2
New object=Line.l_op_r_col_p1rlv1939_dash_rdt1151lv_cp_ Units=km Length=0.074647 bus1=rdt1151lv.1.2 bus2=p1rlv1939.1.2 switch=n enabled=y phases=2 Linecode=1P_OH_AL_4_fs_0_Zuzara_2
New object=Line.l_op_r_col_p1rlv1941_dash_rdt1151lv_cp_ Units=km Length=0.0966935 bus1=rdt1151lv.1.2 bus2=p1rlv1941.1.2 switch=n enabled=y phases=2 Linecode=1P_OH_AL_4_fs_0_Zuzara_2
New object=Line.l_op_r_col_p1rlv1940_dash_rdt1152lv_cp_ Units=km Length=0.050611 bus1=rdt1152lv.1.2 bus2=p1rlv1940.1.2 switch=n enabled=y phases=2 Linecode=1P_OH_AL_4_fs_0_Zuzara_2
New object=Line.l_op_r_col_p1rlv1942_dash_rdt1152lv_cp_ Units=km Length=0.12458100000000001 bus1=rdt1152lv.1.2 bus2=p1rlv1942.1.2 switch=n enabled=y phases=2 Linecode=1P_OH_AL_4_fs_0_Zuzara_2
New object=Line.l_op_r_col_p1rlv1943_dash_rdt1152lv_cp_ Units=km Length=0.0646262 bus1=rdt1152lv.1.2 bus2=p1rlv1943.1.2 switch=n enabled=y phases=2 Linecode=1P_OH_AL_4_fs_0_Zuzara_2
New object=Line.l_op_r_col_p1rlv1944_dash_rdt1152lv_cp_ Units=km Length=0.08321520000000002 bus1=rdt1152lv.1.2 bus2=p1rlv1944.1.2 switch=n enabled=y phases=2 Linecode=1P_OH_AL_4_fs_0_Zuzara_2
New object=Line.l_op_r_col_p1rlv1945_dash_rdt1152lv_cp_ Units=km Length=0.106537 bus1=rdt1152lv.1.2 bus2=p1rlv1945.1.2 switch=n enabled=y phases=2 Linecode=1P_OH_AL_4_fs_0_Zuzara_2
New object=Line.l_op_r_col_p1rlv1946_dash_rdt1153lv_cp_ Units=km Length=0.0213823 bus1=rdt1153lv.1.2 bus2=p1rlv1946.1.2 switch=n enabled=y phases=2 Linecode=1P_OH_AL_2_fs_0_Rucina_2
New object=Line.l_op_r_col_p1rlv1947_dash_rdt1153lv_cp_ Units=km Length=0.0213823 bus1=rdt1153lv.1.2 bus2=p1rlv1947.1.2 switch=n enabled=y phases=2 Linecode=1P_OH_AL_2_fs_0_Rucina_2
New object=Line.l_op_r_col_p1rlv1948_dash_rdt1154lv_cp_ Units=km Length=0.0456151 bus1=rdt1154lv.1.2 bus2=p1rlv1948.1.2 switch=n enabled=y phases=2 Linecode=1P_OH_AL_4_fs_0_Zuzara_2