New "LoadShape.LoadP_1" npts=8760 interval=1.000000 mult=(File=LoadShape1.CSV)