


New Line.THR201_connector              bus1=_THR_SUB_1_LSB                 bus2=THR201                         length=0.001       r1=0.001                                                  r0=0.001 x1=0.01       x0=0.01  c1=0 c0=0 units=km enabled=False phases=3 
New Line.MDV202_connector              bus1=_MDV_SUB_2_LSB                 bus2=MDV202                         length=0.001       r1=0.001                                                  r0=0.001 x1=0.01       x0=0.01  c1=0 c0=0 units=km enabled=False phases=3 
New Line.MDV201_connector              bus1=_MDV_SUB_1_LSB                 bus2=MDV201                         length=0.001       r1=0.001                                                  r0=0.001 x1=0.01       x0=0.01  c1=0 c0=0 units=km enabled=True  phases=3 
New Line.PIT201_connector              bus1=_PIT_SUB_1_LSB                 bus2=PIT201                         length=0.001       r1=0.001                                                  r0=0.001 x1=0.01       x0=0.01  c1=0 c0=0 units=km enabled=False phases=3 
New Line.MDV201_HN_1_275_A94744        bus1=94743.1                        bus2=94744.1                        length=0.078943197 geometry=1PH-AL_#2_7STRNONENONEACSR_1/0_6/1                               units=km enabled=True  phases=1 
New Line.MDV201_HN_2_466_C62235        bus1=62244.3                        bus2=62235.3                        length=0.042671999 geometry=1PH-NONENONEAL_1/0_7STRACSR_1/0_6/1                              units=km enabled=True  phases=1 
New Line.MDV201_DA_8_780_A1144234      bus1=1144235.1                      bus2=1144234.1                      length=0.1161288   geometry=1PH-AL_#2_7STRNONENONEACSR_1/0_6/1                               units=km enabled=True  phases=1 
New Line.MDV201_1160486ELB-1_sw        bus1=39754.2                        bus2=MDV201_1160486ELB_INT.2        length=1           switch=y                                                  units=km enabled=True  phases=1 
New Line.MDV201_1160486ELB             bus1=MDV201_1160486ELB_INT.2        bus2=1160486.2                      length=0.001524    linecode=BUSBAR                                                  units=km enabled=True  phases=1 
New Line.MDV201_HN_2P009_B1160473      bus1=1160476.2                      bus2=1160473.2                      length=0.060959998 linecode=UG_1/0AL                                                  units=km enabled=True  phases=1 
New Line.MDV201_HN_2_088_ABC8164       bus1=8163                           bus2=8164                           length=0.084124797 geometry=3PH_HORIZ_LG_1C-AL_4/0_7STRAL_4/0_7STRAL_4/0_7STRACSR_1/0_6/1    units=km enabled=True  phases=3 
New Line.MDV201_HN_2_319_B39610        bus1=103730.2                       bus2=39610.2                        length=0.019202399 geometry=1PH-NONEAL_#2_7STRNONEACSR_1/0_6/1                               units=km enabled=True  phases=1 
New Line.MDV201_HN_2_417_A842          bus1=835.1                          bus2=842.1                          length=0.048767998 geometry=1PH-AL_#2_7STRNONENONEACSR_1/0_6/1                               units=km enabled=True  phases=1 
New Line.MDV201_OSW_67888_sw           bus1=107782                         bus2=MDV201_OSW_67888_INT           length=1           switch=y                                                  units=km enabled=False phases=3 
New Line.MDV201_OSW_67888              bus1=MDV201_OSW_67888_INT           bus2=67888                          length=0.001524    geometry=3PH_HORIZ_LG_1C-BUSBARBUSBARBUSBARBUSBAR                         units=km enabled=False phases=3 
New Line.MDV201_HN_2_941_B39760        bus1=39775.2                        bus2=39760.2                        length=0.060350398 geometry=1PH-NONEAL_#2_7STRNONEACSR_1/0_6/1                               units=km enabled=True  phases=1 
New Line.MDV201_1160480ELB-1_sw        bus1=15004.2                        bus2=MDV201_1160480ELB_INT.2        length=1           switch=y                                                  units=km enabled=True  phases=1 
New Line.MDV201_1160480ELB             bus1=MDV201_1160480ELB_INT.2        bus2=1160480.2                      length=0.001524    linecode=BUSBAR                                                  units=km enabled=True  phases=1 
New Line.C_1P034_sw                    bus1=1160492.1                      bus2=MDV201_8088ELB_INT.1           length=1           switch=y                                                  units=km enabled=True  phases=1 
New Line.MDV201_8088ELB                bus1=MDV201_8088ELB_INT.1           bus2=8088.1                         length=0.001524    linecode=BUSBAR                                                  units=km enabled=True  phases=1 
New Line.MDV201_HN_2_499_ABC834        bus1=829                            bus2=834                            length=0.088391997 geometry=3PH_HORIZ_LG_1C-CU_#2_7STRCU_#2_7STRCU_#2_7STRACSR_1/0_6/1       units=km enabled=True  phases=3 
New Line.MDV201_1160478ELB-1_sw        bus1=15005.2                        bus2=MDV201_1160478ELB_INT.2        length=1           switch=y                                                  units=km enabled=True  phases=1 
New Line.MDV201_1160478ELB             bus1=MDV201_1160478ELB_INT.2        bus2=1160478.2                      length=0.001524    linecode=BUSBAR                                                  units=km enabled=True  phases=1 
New Line.MDV201_HN_2_217_ABC8160       bus1=44582                          bus2=8160                           length=0.025907999 geometry=3PH_HORIZ_LG_1C-AL_4/0_7STRAL_4/0_7STRAL_4/0_7STRACSR_1/0_6/1    units=km enabled=True  phases=3 
New Line.MDV201_HN_2_942_C89791        bus1=89783.3                        bus2=89791.3                        length=0.052120798 geometry=1PH-NONENONEAL_#2_7STRACSR_1/0_6/1                               units=km enabled=True  phases=1 
New Line.MDV201_99422FUSE              bus1=6584.1                         bus2=99422.1                        length=0.001524    geometry=1PH-BUSBARNONENONEBUSBAR                                         units=km enabled=True  phases=1 
New Line.MDV201_HN_2_140_ABC8124       bus1=8113                           bus2=8124                           length=0.064312798 geometry=3PH_HORIZ_LG_1C-CU_#2_7STRCU_#2_7STRCU_#2_7STRACSR_1/0_6/1       units=km enabled=True  phases=3 
New Line.MDV201_HN_2_818_ABC63707      bus1=14880                          bus2=63707                          length=0.058826398 geometry=3PH_HORIZ_LG_1C-AL_4/0_7STRAL_4/0_7STRAL_4/0_7STRACSR_1/0_6/1    units=km enabled=True  phases=3 
New Line.MDV201_DA_8_731_C74450        bus1=74449.3                        bus2=74450.3                        length=0.047243998 geometry=1PH-NONENONEAL_#2_7STRACSR_1/0_6/1                               units=km enabled=True  phases=1 
New Line.MDV201_100494FUSE             bus1=14989.2                        bus2=100494.2                       length=0.001524    geometry=1PH-NONEBUSBARNONEBUSBAR                                         units=km enabled=True  phases=1 
New Line.MDV201_107110FUSE             bus1=63683.1.3                      bus2=107110.1.3                     length=0.001524    geometry=2PH_HORIZ_LG_1C-BUSBARNONEBUSBARBUSBAR                           units=km enabled=True  phases=2 
New Line.MDV201_HN_2_477_C8121         bus1=1144242.3                      bus2=8121.3                         length=0.049682398 geometry=1PH-NONENONEAL_#2_7STRACSR_1/0_6/1                               units=km enabled=True  phases=1 
New Line.MDV201_HN_2_876_C63671        bus1=63668.3                        bus2=63671.3                        length=0.046939198 geometry=1PH-NONENONEAL_1/0_7STRACSR_1/0_6/1                              units=km enabled=True  phases=1 
New Line.MDV201_HN_2_671_C89781        bus1=89784.3                        bus2=89781.3                        length=0.052730398 geometry=1PH-NONENONEAL_1/0_7STRACSR_1/0_6/1                              units=km enabled=True  phases=1 
New Line.MDV201_DA_8_930_A39751        bus1=39734.1                        bus2=39751.1                        length=0.068579998 geometry=1PH-AL_1/0_7STRNONENONEACSR_1/0_6/1                              units=km enabled=True  phases=1 
New Line.MDV201_HN_2_394_ABC63658      bus1=63657                          bus2=63658                          length=0.038099999 geometry=3PH_VERT_1C-AL_556_19STRAL_556_19STRAL_556_19STRACSR_1/0_6/1     units=km enabled=True  phases=3 
New Line.MDV201_DA_8_687_B74448        bus1=74445.2                        bus2=74448.2                        length=0.044805599 geometry=1PH-NONEAL_#2_7STRNONEACSR_1/0_6/1                               units=km enabled=True  phases=1 
New Line.MDV201_1012643FUSE            bus1=1012641.3                      bus2=1012643.3                      length=0.001524    geometry=1PH-NONENONEBUSBARBUSBAR                                         units=km enabled=True  phases=1 
New Line.MDV201_HN_1_238_A39569        bus1=39570.1                        bus2=39569.1                        length=0.065227198 geometry=1PH-AL_#2_7STRNONENONEACSR_1/0_6/1                               units=km enabled=True  phases=1 
New Line.MDV201_14869FUSE              bus1=14858.1                        bus2=14869.1                        length=0.001524    geometry=1PH-BUSBARNONENONEBUSBAR                                         units=km enabled=True  phases=1 
New Line.MDV201_HN_1_156_C89790        bus1=89796.3                        bus2=89790.3                        length=0.091439997 geometry=1PH-NONENONEAL_1/0_7STRACSR_1/0_6/1                              units=km enabled=True  phases=1 
New Line.MDV201_HN_2_318_C28272        bus1=28271.3                        bus2=28272.3                        length=0.070103998 geometry=1PH-NONENONEAL_#2_7STRACSR_1/0_6/1                               units=km enabled=True  phases=1 
New Line.MDV201_C_1_140_ABC69477       bus1=69478                          bus2=69477                          length=0.1078992   geometry=3PH_VERT_1C-AL_556_19STRAL_556_19STRAL_556_19STRACSR_1/0_6/1     units=km enabled=True  phases=3 
New Line.MDV201_HN_2_948_C8176         bus1=8175.3                         bus2=8176.3                         length=0.046634399 geometry=1PH-NONENONEAL_1/0_7STRACSR_1/0_6/1                              units=km enabled=True  phases=1 
New Line.MDV201_1144230FUSE            bus1=8184.1                         bus2=1144230.1                      length=0.001524    geometry=1PH-BUSBARNONENONEBUSBAR                                         units=km enabled=True  phases=1 
New Line.MDV201_HN_2_105_ABC39582      bus1=39595                          bus2=39582                          length=0.082600797 geometry=3PH_HORIZ_LG_1C-AL_1/0_7STRAL_1/0_7STRAL_1/0_7STRACSR_1/0_6/1    units=km enabled=True  phases=3 
New Line.MDV201_DA_8_691_B46386        bus1=46385.2                        bus2=46386.2                        length=0.042671999 geometry=1PH-NONEAL_#2_7STRNONEACSR_1/0_6/1                               units=km enabled=True  phases=1 
New Line.MDV201_HN_2_457_C62244        bus1=106884.3                       bus2=62244.3                        length=0.030784799 geometry=1PH-NONENONEAL_1/0_7STRACSR_1/0_6/1                              units=km enabled=True  phases=1 
New Line.C_1P038_sw                    bus1=1160493.1                      bus2=MDV201_8075ELB_INT.1           length=1           switch=y                                                  units=km enabled=True  phases=1 
New Line.MDV201_8075ELB                bus1=MDV201_8075ELB_INT.1           bus2=8075.1                         length=0.001524    linecode=BUSBAR                                                  units=km enabled=True  phases=1 
New Line.C_1P032_sw                    bus1=69460.1                        bus2=MDV201_107997ELB_INT.1         length=1           switch=y                                                  units=km enabled=True  phases=1 
New Line.MDV201_107997ELB              bus1=MDV201_107997ELB_INT.1         bus2=107997.1                       length=0.001524    linecode=BUSBAR                                                  units=km enabled=True  phases=1 
New Line.MDV201_HN_2_949_C8180         bus1=8176.3                         bus2=8180.3                         length=0.021031199 geometry=1PH-NONENONEAL_1/0_7STRACSR_1/0_6/1                              units=km enabled=True  phases=1 
New Line.MDV201_C_1P024_A8100          bus1=1160461.1                      bus2=8100.1                         length=0.1237488   linecode=UG_1/0AL                                                  units=km enabled=True  phases=1 
New Line.MDV201_HN_2_166_C33824        bus1=39776.3                        bus2=33824.3                        length=0.066751198 geometry=1PH-NONENONECU_#6_1STRACSR_1/0_6/1                               units=km enabled=True  phases=1 
New Line.MDV201_HN_2_827_A14873        bus1=1140227.1                      bus2=14873.1                        length=0.040843199 geometry=1PH-AL_#2_7STRNONENONEACSR_1/0_6/1                               units=km enabled=True  phases=1 
New Line.HN_2P017_sw                   bus1=1160488.2                      bus2=MDV201_62249ELB_INT.2          length=1           switch=y                                                  units=km enabled=True  phases=1 
New Line.MDV201_62249ELB               bus1=MDV201_62249ELB_INT.2          bus2=62249.2                        length=0.001524    linecode=BUSBAR                                                  units=km enabled=True  phases=1 
New Line.MDV201_HN_2_397_B63634        bus1=107106.2                       bus2=63634.2                        length=0.052120798 geometry=1PH-NONEAL_#2_7STRNONEACSR_1/0_6/1                               units=km enabled=True  phases=1 
New Line.MDV201_C_1P037_A1160467       bus1=1160494.1                      bus2=1160467.1                      length=0.041452799 linecode=UG_1/0AL                                                  units=km enabled=True  phases=1 
New Line.MDV201_HN_2_280_A8185         bus1=1144230.1                      bus2=8185.1                         length=0.042367199 geometry=1PH-CU_#6_1STRNONENONEACSR_1/0_6/1                               units=km enabled=True  phases=1 
New Line.MDV201_HN_2_794_ABC791        bus1=796                            bus2=791                            length=0.059740798 geometry=3PH_HORIZ_LG_1C-AL_556_19STRAL_556_19STRAL_556_19STRACSR_1/0_6/1 units=km enabled=True  phases=3 
New Line.MDV201_HN_2_677_C62303        bus1=62306.3                        bus2=62303.3                        length=0.059740798 geometry=1PH-NONENONEAL_1/0_7STRACSR_1/0_6/1                              units=km enabled=True  phases=1 
New Line.MDV201_100478FUSE             bus1=14839.3                        bus2=100478.3                       length=0.001524    geometry=1PH-NONENONEBUSBARBUSBAR                                         units=km enabled=True  phases=1 
New Line.MDV201_HN_2_115_ABC58446      bus1=58441                          bus2=58446                          length=0.043586399 geometry=3PH_HORIZ_LG_1C-AL_1/0_7STRAL_1/0_7STRAL_1/0_7STRACSR_1/0_6/1    units=km enabled=True  phases=3 
New Line.MDV201_HN_2_895_B52515        bus1=112112.2                       bus2=52515.2                        length=0.024383999 geometry=1PH-NONEAL_#2_7STRNONEACSR_1/0_6/1                               units=km enabled=True  phases=1 
New Line.MDV201_98795FUSE              bus1=846                            bus2=98795                          length=0.001524    geometry=3PH_HORIZ_LG_1C-BUSBARBUSBARBUSBARBUSBAR                         units=km enabled=True  phases=3 
New Line.MDV201_HN_2_246_B39602        bus1=39623.2                        bus2=39602.2                        length=0.067970398 geometry=1PH-NONEAL_1/0_7STRNONEACSR_1/0_6/1                              units=km enabled=True  phases=1 
New Line.MDV201_DA_8_149_ABC56778      bus1=56777                          bus2=56778                          length=0.102108    geometry=3PH_HORIZ_LG_1C-AL_4/0_7STRAL_4/0_7STRAL_4/0_7STRACSR_1/0_6/1    units=km enabled=True  phases=3 
New Line.MDV201_HN_2_083_ABC62239      bus1=44586                          bus2=62239                          length=0.031394399 geometry=3PH_HORIZ_LG_1C-AL_4/0_7STRAL_4/0_7STRAL_4/0_7STRACSR_1/0_6/1    units=km enabled=True  phases=3 
New Line.MDV201_DA_8_145_ABC46393      bus1=46394                          bus2=46393                          length=0.074066398 geometry=3PH_HORIZ_LG_1C-AL_4/0_7STRAL_4/0_7STRAL_4/0_7STRACSR_1/0_6/1    units=km enabled=True  phases=3 
New Line.MDV201_HN_2_729_B28246        bus1=1144254.2                      bus2=28246.2                        length=0.026212799 geometry=1PH-NONEAL_#2_7STRNONEACSR_1/0_6/1                               units=km enabled=True  phases=1 
New Line.MDV201_HN_2_954_B39771        bus1=14996.2                        bus2=39771.2                        length=0.049987198 geometry=1PH-NONEAL_#2_7STRNONEACSR_1/0_6/1                               units=km enabled=True  phases=1 
New Line.MDV201_108776FUSE             bus1=74432.1                        bus2=108776.1                       length=0.001524    geometry=1PH-BUSBARNONENONEBUSBAR                                         units=km enabled=True  phases=1 
New Line.HN_2P028_sw                   bus1=1160489.1                      bus2=MDV201_795ELB_INT.1            length=1           switch=y                                                  units=km enabled=True  phases=1 
New Line.MDV201_795ELB                 bus1=MDV201_795ELB_INT.1            bus2=795.1                          length=0.001524    linecode=BUSBAR                                                  units=km enabled=True  phases=1 
New Line.MDV201_1140227FUSE            bus1=14879.1                        bus2=1140227.1                      length=0.001524    geometry=1PH-BUSBARNONENONEBUSBAR                                         units=km enabled=True  phases=1 
New Line.MDV201_HN_2_488_C8103         bus1=8099.3                         bus2=8103.3                         length=0.038099999 geometry=1PH-NONENONEAL_#2_7STRACSR_1/0_6/1                               units=km enabled=True  phases=1 
New Line.MDV201_DA_8_917_A56768        bus1=1000983.1                      bus2=56768.1                        length=0.030784799 geometry=1PH-AL_1/0_7STRNONENONEACSR_1/0_6/1                              units=km enabled=True  phases=1 
New Line.MDV201_HN_2_029_ABC62262      bus1=62265                          bus2=62262                          length=0.060959998 geometry=3PH_HORIZ_LG_1C-AL_4/0_7STRAL_4/0_7STRAL_4/0_7STRACSR_1/0_6/1    units=km enabled=True  phases=3 
New Line.MDV201_HN_2_955_B39752        bus1=39771.2                        bus2=39752.2                        length=0.050596798 geometry=1PH-NONEAL_#2_7STRNONEACSR_1/0_6/1                               units=km enabled=True  phases=1 
New Line.MDV201_DA_8_215_B1017348      bus1=1017350.2                      bus2=1017348.2                      length=0.1115568   geometry=1PH-NONEACSR_1/0_6/1NONEACSR_1/0_6/1                             units=km enabled=True  phases=1 
New Line.MDV201_DA_8_678_A56764        bus1=56760.1                        bus2=56764.1                        length=0.057607198 geometry=1PH-AL_#2_7STRNONENONEACSR_1/0_6/1                               units=km enabled=True  phases=1 
New Line.MDV201_HN_2_834_B39617        bus1=39620.2                        bus2=39617.2                        length=0.056692798 geometry=1PH-NONEAL_1/0_7STRNONEACSR_1/0_6/1                              units=km enabled=True  phases=1 
New Line.MDV201_HN_2_906_A39580        bus1=39589.1                        bus2=39580.1                        length=0.019507199 geometry=1PH-AL_#2_7STRNONENONEACSR_1/0_6/1                               units=km enabled=True  phases=1 
New Line.MDV201_DA_8_734_C74440        bus1=74446.3                        bus2=74440.3                        length=0.035966399 geometry=1PH-NONENONEAL_#2_7STRACSR_1/0_6/1                               units=km enabled=True  phases=1 
New Line.MDV201_DA_8_157_ABC58429      bus1=58430                          bus2=58429                          length=0.079552797 geometry=3PH_VERT_1C-AL_336_19STRAL_336_19STRAL_336_19STRACSR_1/0_6/1     units=km enabled=True  phases=3 
New Line.MDV201_HN_2_605_A21655        bus1=28213.1                        bus2=21655.1                        length=0.069189598 geometry=1PH-AL_#2_7STRNONENONEACSR_1/0_6/1                               units=km enabled=True  phases=1 
New Line.MDV201_HN_2_636_AC28249       bus1=63666.1.3                      bus2=28249.1.3                      length=0.063093598 geometry=2PH_VERT_1C-AL_1/0_7STRNONEAL_1/0_7STRACSR_1/0_6/1               units=km enabled=True  phases=2 
New Line.MDV201_HN_2_705_ABC52524      bus1=105409                         bus2=52524                          length=0.041452799 geometry=3PH_VERT_1C-AL_4/0_7STRAL_4/0_7STRAL_4/0_7STRACSR_1/0_6/1        units=km enabled=True  phases=3 
New Line.MDV201_DA_8_928_A39733        bus1=74424.1                        bus2=39733.1                        length=0.073456798 geometry=1PH-AL_1/0_7STRNONENONEACSR_1/0_6/1                              units=km enabled=True  phases=1 
New Line.MDV201_HN_2_383_ABC8113       bus1=8111                           bus2=8113                           length=0.064312798 geometry=3PH_HORIZ_LG_1C-CU_#2_7STRCU_#2_7STRCU_#2_7STRACSR_1/0_6/1       units=km enabled=True  phases=3 
New Line.MDV201_HN_2_803_B837          bus1=836.2                          bus2=837.2                          length=0.054559198 geometry=1PH-NONEAL_1/0_7STRNONEACSR_1/0_6/1                              units=km enabled=True  phases=1 
New Line.SW-HN_2_793_sw                bus1=1023346                        bus2=MDV201_796USD_INT              length=1           switch=y                                                  units=km enabled=True  phases=3 
New Line.MDV201_796USD                 bus1=MDV201_796USD_INT              bus2=796                            length=0.001524    geometry=3PH_HORIZ_LG_1C-BUSBARBUSBARBUSBARBUSBAR                         units=km enabled=True  phases=3 
New Line.MDV201_HN_1_332_C28263        bus1=28262.3                        bus2=28263.3                        length=0.042671999 geometry=1PH-NONENONEAL_#2_7STRACSR_1/0_6/1                               units=km enabled=True  phases=1 
New Line.MDV201_HN_2_890_B52521        bus1=52519.2                        bus2=52521.2                        length=0.070713598 geometry=1PH-NONEAL_#2_7STRNONEACSR_1/0_6/1                               units=km enabled=True  phases=1 
New Line.MDV201_HN_2_377_ABC28196      bus1=28199                          bus2=28196                          length=0.066141598 geometry=3PH_HORIZ_LG_1C-CU_#2_7STRCU_#2_7STRCU_#2_7STRACSR_1/0_6/1       units=km enabled=True  phases=3 
New Line.MDV201_HN_1_331_C28262        bus1=28264.3                        bus2=28262.3                        length=0.064007998 geometry=1PH-NONENONEAL_#2_7STRACSR_1/0_6/1                               units=km enabled=True  phases=1 
New Line.MDV201_HN_2_628_C52531        bus1=28229.3                        bus2=52531.3                        length=0.059131198 geometry=1PH-NONENONEAL_1/0_7STRACSR_1/0_6/1                              units=km enabled=True  phases=1 
New Line.MDV201_HN_2_964_A14870        bus1=14869.1                        bus2=14870.1                        length=0.080467197 geometry=1PH-AL_#2_7STRNONENONEACSR_1/0_6/1                               units=km enabled=True  phases=1 
New Line.MDV201_DA_8_200_C46399        bus1=46398.3                        bus2=46399.3                        length=0.032613599 geometry=1PH-NONENONECU_#6_1STRACSR_1/0_6/1                               units=km enabled=True  phases=1 
New Line.MDV201_106895FUSE             bus1=62264.2                        bus2=106895.2                       length=0.001524    geometry=1PH-NONEBUSBARNONEBUSBAR                                         units=km enabled=True  phases=1 
New Line.HN_2P054_sw                   bus1=1163442.3                      bus2=MDV201_1163443ELB_INT.3        length=1           switch=y                                                  units=km enabled=True  phases=1 
New Line.MDV201_1163443ELB             bus1=MDV201_1163443ELB_INT.3        bus2=1163443.3                      length=0.001524    linecode=BUSBAR                                                  units=km enabled=True  phases=1 
New Line.MDV201_DA_8_142_ABC6584       bus1=99420                          bus2=6584                           length=0.068579998 geometry=3PH_HORIZ_LG_1C-AL_4/0_7STRAL_4/0_7STRAL_4/0_7STRACSR_1/0_6/1    units=km enabled=True  phases=3 
New Line.MDV201_1144249FUSE            bus1=14828.3                        bus2=1144249.3                      length=0.001524    geometry=1PH-NONENONEBUSBARBUSBAR                                         units=km enabled=True  phases=1 
New Line.MDV201_HN_2_965_A63726        bus1=14870.1                        bus2=63726.1                        length=0.068884798 geometry=1PH-AL_#2_7STRNONENONEACSR_1/0_6/1                               units=km enabled=True  phases=1 
New Line.MDV201_C_1_410_A8131          bus1=8134.1                         bus2=8131.1                         length=0.054559198 geometry=1PH-AL_#2_7STRNONENONEACSR_1/0_6/1                               units=km enabled=True  phases=1 
New Line.MDV201_HN_2_463_C62234        bus1=62232.3                        bus2=62234.3                        length=0.049377598 geometry=1PH-NONENONEAL_1/0_7STRACSR_1/0_6/1                              units=km enabled=True  phases=1 
New Line.MDV201_HN_2_133_ABC8083       bus1=841                            bus2=8083                           length=0.039014399 geometry=3PH_HORIZ_LG_1C-CU_#2_7STRCU_#2_7STRCU_#2_7STRACSR_1/0_6/1       units=km enabled=True  phases=3 
New Line.MDV201_HN_2_840_B52518        bus1=39579.2                        bus2=52518.2                        length=0.060655198 geometry=1PH-NONEAL_1/0_7STRNONEACSR_1/0_6/1                              units=km enabled=True  phases=1 
New Line.MDV201_HN_2_808_ABC783        bus1=782                            bus2=783                            length=0.057302398 geometry=3PH_VERT_1C-AL_556_19STRAL_556_19STRAL_556_19STRACSR_1/0_6/1     units=km enabled=True  phases=3 
New Line.MDV201_HN_2_608_A8133         bus1=8132.1                         bus2=8133.1                         length=0.038404799 geometry=1PH-AL_#2_7STRNONENONEACSR_1/0_6/1                               units=km enabled=True  phases=1 
New Line.ELB-C_1P032_sw                bus1=107997.1                       bus2=MDV201_C_1P032_1160490_INT.1   length=1           switch=y                                                  units=km enabled=False phases=1 
New Line.MDV201_C_1P032_1160490        bus1=MDV201_C_1P032_1160490_INT.1   bus2=1160490.1                      length=0.001524    linecode=BUSBAR                                                  units=km enabled=True  phases=1 
New Line.MDV201_HN_2_077_C28274        bus1=100477.3                       bus2=28274.3                        length=0.076199998 geometry=1PH-NONENONECU_#6_1STRACSR_1/0_6/1                               units=km enabled=True  phases=1 
New Line.MDV201_HN_2_711_A63676        bus1=63677.1                        bus2=63676.1                        length=0.035356799 geometry=1PH-AL_#2_7STRNONENONEACSR_1/0_6/1                               units=km enabled=True  phases=1 
New Line.MDV201_HN_2_923_C28266        bus1=102184.3                       bus2=28266.3                        length=0.028041599 geometry=1PH-NONENONEAL_#2_7STRACSR_1/0_6/1                               units=km enabled=True  phases=1 
New Line.MDV201_HN_21041_C39773        bus1=39772.3                        bus2=39773.3                        length=0.088391997 geometry=1PH-NONENONEAL_1/0_7STRACSR_1/0_6/1                              units=km enabled=True  phases=1 
New Line.MDV201_HN_2_644_A28238        bus1=28241.1                        bus2=28238.1                        length=0.054863998 geometry=1PH-AL_1/0_7STRNONENONEACSR_1/0_6/1                              units=km enabled=True  phases=1 
New Line.MDV201_1144260FUSE            bus1=848.2                          bus2=1144260.2                      length=0.001524    geometry=1PH-NONEBUSBARNONEBUSBAR                                         units=km enabled=True  phases=1 
New Line.MDV201_HN_2_539_C8098         bus1=8095.3                         bus2=8098.3                         length=0.041147999 geometry=1PH-NONENONEAL_#2_7STRACSR_1/0_6/1                               units=km enabled=True  phases=1 
New Line.MDV201_HN_2_800_B850          bus1=849.2                          bus2=850.2                          length=0.045110399 geometry=1PH-NONEAL_1/0_7STRNONEACSR_1/0_6/1                              units=km enabled=True  phases=1 
New Line.MDV201_HN_2_092_ABC63711      bus1=63714                          bus2=63711                          length=0.105156    geometry=3PH_HORIZ_LG_1C-AL_4/0_7STRAL_4/0_7STRAL_4/0_7STRACSR_1/0_6/1    units=km enabled=True  phases=3 
New Line.MDV201_HN_2P014_B1160485      bus1=1160484.2                      bus2=1160485.2                      length=0.042671999 linecode=UG_1/0AL                                                  units=km enabled=True  phases=1 
New Line.MDV201_C_1_412_A8128          bus1=8127.1                         bus2=8128.1                         length=0.041452799 geometry=1PH-AL_#2_7STRNONENONEACSR_1/0_6/1                               units=km enabled=True  phases=1 