clock {
timezone PST+8PDT;
stoptime '2000-01-02 00:00:00';
starttime '2000-01-01 00:00:00';
};

#set minimum_timestep=60;
#set profiler=1;
#set relax_naming_rules=1;
module generators;
module tape;
module climate;
module residential {
implicit_enduses NONE;
};

module powerflow {
solver_method FBS;
NR_iteration_limit 50;
};

object climate {
name Climate;
interpolate QUADRATIC;
tmyfile climate.tmy2;
};

object node {
phases ABCN;
nominal_voltage 7200.0;
name FRIENDSHIP;
bustype SWING;
};

object regulator {
phases ACB;
from FRIENDSHIP;
name REG27;
to node958175REG27;
configuration REG27regulator_configuration12;
};

object regulator_configuration {
Control MANUAL;
raise_taps 16;
PT_phase ABC;
name REG27regulator_configuration12;
band_center 2401;
tap_pos_A 1;
tap_pos_B 1;
tap_pos_C 1;
time_delay 30.0;
connect_type 1;
regulation 0.10;
CT_phase ABC;
band_width 50;
Type A;
lower_taps 16;
};

object underground_line {
phases ACB;
from node958175REG27;
name 958175;
to nodeRFRN1-R0001x1958175;
length 24;
configuration 958175line_configuration14;
};

object line_configuration {
name 958175line_configuration14;
spacing 958175line_configuration14line_spacing15;
conductor_N 958175line_configuration14underground_line_conductor18;
conductor_A 958175line_configuration14underground_line_conductor16;
conductor_C 958175line_configuration14underground_line_conductor19;
conductor_B 958175line_configuration14underground_line_conductor17;
};

object line_spacing {
distance_AN 0.000000;
name 958175line_configuration14line_spacing15;
distance_CN 0.000000;
distance_BC 0.500000;
distance_AB 0.500000;
distance_BN 0.000000;
distance_AC 1.000000;
};

object underground_line_conductor {
conductor_gmr 0.008830;
conductor_resistance 1.540000;
shield_resistance 0.000000;
neutral_gmr 0.002080;
outer_diameter 0.980000;
neutral_strands 6.000000;
neutral_resistance 14.872000;
neutral_diameter 0.064000;
conductor_diameter 0.292000;
shield_gmr 0.000000;
name 958175line_configuration14underground_line_conductor16;
};

object underground_line_conductor {
conductor_gmr 0.008830;
conductor_resistance 1.540000;
shield_resistance 0.000000;
neutral_gmr 0.002080;
outer_diameter 0.980000;
neutral_strands 6.000000;
neutral_resistance 14.872000;
neutral_diameter 0.064000;
conductor_diameter 0.292000;
shield_gmr 0.000000;
name 958175line_configuration14underground_line_conductor17;
};

object underground_line_conductor {
conductor_gmr 0.008830;
conductor_resistance 1.540000;
shield_resistance 0.000000;
neutral_gmr 0.002080;
outer_diameter 0.980000;
neutral_strands 6.000000;
neutral_resistance 14.872000;
neutral_diameter 0.064000;
conductor_diameter 0.292000;
shield_gmr 0.000000;
name 958175line_configuration14underground_line_conductor18;
};

object underground_line_conductor {
conductor_gmr 0.008830;
conductor_resistance 1.540000;
shield_resistance 0.000000;
neutral_gmr 0.002080;
outer_diameter 0.980000;
neutral_strands 6.000000;
neutral_resistance 14.872000;
neutral_diameter 0.064000;
conductor_diameter 0.292000;
shield_gmr 0.000000;
name 958175line_configuration14underground_line_conductor19;
};

object fuse {
phases ACB;
from nodeRFRN1-R0001x1958175;
name RFRN1-R0001x1;
current_limit 9999.0 A;
to node958178RFRN1-R0001x1;
};

object underground_line {
phases ACB;
from node958178RFRN1-R0001x1;
name 958178;
to node958179958178;
length 780;
configuration 958178line_configuration22;
};

object line_configuration {
name 958178line_configuration22;
spacing 958178line_configuration22line_spacing23;
conductor_N 958178line_configuration22underground_line_conductor26;
conductor_A 958178line_configuration22underground_line_conductor24;
conductor_C 958178line_configuration22underground_line_conductor27;
conductor_B 958178line_configuration22underground_line_conductor25;
};

object line_spacing {
distance_AN 0.000000;
name 958178line_configuration22line_spacing23;
distance_CN 0.000000;
distance_BC 0.500000;
distance_AB 0.500000;
distance_BN 0.000000;
distance_AC 1.000000;
};

object underground_line_conductor {
conductor_gmr 0.008830;
conductor_resistance 1.540000;
shield_resistance 0.000000;
neutral_gmr 0.002080;
outer_diameter 0.980000;
neutral_strands 6.000000;
neutral_resistance 14.872000;
neutral_diameter 0.064000;
conductor_diameter 0.292000;
shield_gmr 0.000000;
name 958178line_configuration22underground_line_conductor24;
};

object underground_line_conductor {
conductor_gmr 0.008830;
conductor_resistance 1.540000;
shield_resistance 0.000000;
neutral_gmr 0.002080;
outer_diameter 0.980000;
neutral_strands 6.000000;
neutral_resistance 14.872000;
neutral_diameter 0.064000;
conductor_diameter 0.292000;
shield_gmr 0.000000;
name 958178line_configuration22underground_line_conductor25;
};

object underground_line_conductor {
conductor_gmr 0.008830;
conductor_resistance 1.540000;
shield_resistance 0.000000;
neutral_gmr 0.002080;
outer_diameter 0.980000;
neutral_strands 6.000000;
neutral_resistance 14.872000;
neutral_diameter 0.064000;
conductor_diameter 0.292000;
shield_gmr 0.000000;
name 958178line_configuration22underground_line_conductor26;
};

object underground_line_conductor {
conductor_gmr 0.008830;
conductor_resistance 1.540000;
shield_resistance 0.000000;
neutral_gmr 0.002080;
outer_diameter 0.980000;
neutral_strands 6.000000;
neutral_resistance 14.872000;
neutral_diameter 0.064000;
conductor_diameter 0.292000;
shield_gmr 0.000000;
name 958178line_configuration22underground_line_conductor27;
};

object underground_line {
phases ACB;
from node958179958178;
name 958179;
to node978195958179;
length 860;
configuration 958179line_configuration29;
};

object line_configuration {
name 958179line_configuration29;
spacing 958179line_configuration29line_spacing30;
conductor_N 958179line_configuration29underground_line_conductor33;
conductor_C 958179line_configuration29underground_line_conductor34;
conductor_B 958179line_configuration29underground_line_conductor32;
conductor_A 958179line_configuration29underground_line_conductor31;
};

object line_spacing {
distance_AN 0.000000;
name 958179line_configuration29line_spacing30;
distance_CN 0.000000;
distance_BC 0.500000;
distance_AB 0.500000;
distance_BN 0.000000;
distance_AC 1.000000;
};

object underground_line_conductor {
conductor_gmr 0.008830;
conductor_resistance 1.540000;
shield_resistance 0.000000;
neutral_gmr 0.002080;
outer_diameter 0.980000;
neutral_strands 6.000000;
neutral_resistance 14.872000;
neutral_diameter 0.064000;
conductor_diameter 0.292000;
shield_gmr 0.000000;
name 958179line_configuration29underground_line_conductor31;
};

object underground_line_conductor {
conductor_gmr 0.008830;
conductor_resistance 1.540000;
shield_resistance 0.000000;
neutral_gmr 0.002080;
outer_diameter 0.980000;
neutral_strands 6.000000;
neutral_resistance 14.872000;
neutral_diameter 0.064000;
conductor_diameter 0.292000;
shield_gmr 0.000000;
name 958179line_configuration29underground_line_conductor32;
};

object underground_line_conductor {
conductor_gmr 0.008830;
conductor_resistance 1.540000;
shield_resistance 0.000000;
neutral_gmr 0.002080;
outer_diameter 0.980000;
neutral_strands 6.000000;
neutral_resistance 14.872000;
neutral_diameter 0.064000;
conductor_diameter 0.292000;
shield_gmr 0.000000;
name 958179line_configuration29underground_line_conductor33;
};

object underground_line_conductor {
conductor_gmr 0.008830;
conductor_resistance 1.540000;
shield_resistance 0.000000;
neutral_gmr 0.002080;
outer_diameter 0.980000;
neutral_strands 6.000000;
neutral_resistance 14.872000;
neutral_diameter 0.064000;
conductor_diameter 0.292000;
shield_gmr 0.000000;
name 958179line_configuration29underground_line_conductor34;
};

object underground_line {
phases ACB;
from node978195958179;
name 978195;
to node978172978195;
length 1970;
configuration 978195line_configuration36;
};

object line_configuration {
name 978195line_configuration36;
spacing 978195line_configuration36line_spacing37;
conductor_N 978195line_configuration36underground_line_conductor40;
conductor_B 978195line_configuration36underground_line_conductor39;
conductor_A 978195line_configuration36underground_line_conductor38;
conductor_C 978195line_configuration36underground_line_conductor41;
};

object line_spacing {
distance_AN 0.000000;
name 978195line_configuration36line_spacing37;
distance_CN 0.000000;
distance_BC 0.500000;
distance_AB 0.500000;
distance_BN 0.000000;
distance_AC 1.000000;
};

object underground_line_conductor {
conductor_gmr 0.008830;
conductor_resistance 1.540000;
shield_resistance 0.000000;
neutral_gmr 0.002080;
outer_diameter 0.980000;
neutral_strands 6.000000;
neutral_resistance 14.872000;
neutral_diameter 0.064000;
conductor_diameter 0.292000;
shield_gmr 0.000000;
name 978195line_configuration36underground_line_conductor38;
};

object underground_line_conductor {
conductor_gmr 0.008830;
conductor_resistance 1.540000;
shield_resistance 0.000000;
neutral_gmr 0.002080;
outer_diameter 0.980000;
neutral_strands 6.000000;
neutral_resistance 14.872000;
neutral_diameter 0.064000;
conductor_diameter 0.292000;
shield_gmr 0.000000;
name 978195line_configuration36underground_line_conductor39;
};

object underground_line_conductor {
conductor_gmr 0.008830;
conductor_resistance 1.540000;
shield_resistance 0.000000;
neutral_gmr 0.002080;
outer_diameter 0.980000;
neutral_strands 6.000000;
neutral_resistance 14.872000;
neutral_diameter 0.064000;
conductor_diameter 0.292000;
shield_gmr 0.000000;
name 978195line_configuration36underground_line_conductor40;
};

object underground_line_conductor {
conductor_gmr 0.008830;
conductor_resistance 1.540000;
shield_resistance 0.000000;
neutral_gmr 0.002080;
outer_diameter 0.980000;
neutral_strands 6.000000;
neutral_resistance 14.872000;
neutral_diameter 0.064000;
conductor_diameter 0.292000;
shield_gmr 0.000000;
name 978195line_configuration36underground_line_conductor41;
};

object underground_line {
phases ACB;
from node978172978195;
name 978172;
to node978174978172;
length 780;
configuration 978172line_configuration43;
};

object line_configuration {
name 978172line_configuration43;
spacing 978172line_configuration43line_spacing44;
conductor_N 978172line_configuration43underground_line_conductor47;
conductor_A 978172line_configuration43underground_line_conductor45;
conductor_C 978172line_configuration43underground_line_conductor48;
conductor_B 978172line_configuration43underground_line_conductor46;
};

object line_spacing {
distance_AN 0.000000;
name 978172line_configuration43line_spacing44;
distance_CN 0.000000;
distance_BC 0.500000;
distance_AB 0.500000;
distance_BN 0.000000;
distance_AC 1.000000;
};

object underground_line_conductor {
conductor_gmr 0.008830;
conductor_resistance 1.540000;
shield_resistance 0.000000;
neutral_gmr 0.002080;
outer_diameter 0.980000;
neutral_strands 6.000000;
neutral_resistance 14.872000;
neutral_diameter 0.064000;
conductor_diameter 0.292000;
shield_gmr 0.000000;
name 978172line_configuration43underground_line_conductor45;
};

object underground_line_conductor {
conductor_gmr 0.008830;
conductor_resistance 1.540000;
shield_resistance 0.000000;
neutral_gmr 0.002080;
outer_diameter 0.980000;
neutral_strands 6.000000;
neutral_resistance 14.872000;
neutral_diameter 0.064000;
conductor_diameter 0.292000;
shield_gmr 0.000000;
name 978172line_configuration43underground_line_conductor46;
};

object underground_line_conductor {
conductor_gmr 0.008830;
conductor_resistance 1.540000;
shield_resistance 0.000000;
neutral_gmr 0.002080;
outer_diameter 0.980000;
neutral_strands 6.000000;
neutral_resistance 14.872000;
neutral_diameter 0.064000;
conductor_diameter 0.292000;
shield_gmr 0.000000;
name 978172line_configuration43underground_line_conductor47;
};

object underground_line_conductor {
conductor_gmr 0.008830;
conductor_resistance 1.540000;
shield_resistance 0.000000;
neutral_gmr 0.002080;
outer_diameter 0.980000;
neutral_strands 6.000000;
neutral_resistance 14.872000;
neutral_diameter 0.064000;
conductor_diameter 0.292000;
shield_gmr 0.000000;
name 978172line_configuration43underground_line_conductor48;
};

object underground_line {
phases B;
from node978174978172;
name 978174;
length 30;
to nodeF28653x1978174;
configuration 978174line_configuration50;
};

object line_configuration {
name 978174line_configuration50;
spacing 978174line_configuration50line_spacing51;
conductor_N 978174line_configuration50underground_line_conductor54;
conductor_A 978174line_configuration50underground_line_conductor52;
conductor_C 978174line_configuration50underground_line_conductor55;
conductor_B 978174line_configuration50underground_line_conductor53;
};

object line_spacing {
distance_AN 0.000000;
name 978174line_configuration50line_spacing51;
distance_CN 0.000000;
distance_BC 0.500000;
distance_AB 0.500000;
distance_BN 0.000000;
distance_AC 1.000000;
};

object underground_line_conductor {
conductor_gmr 0.008830;
conductor_resistance 1.540000;
shield_resistance 0.000000;
neutral_gmr 0.002080;
outer_diameter 0.980000;
neutral_strands 6.000000;
neutral_resistance 14.872000;
neutral_diameter 0.064000;
conductor_diameter 0.292000;
shield_gmr 0.000000;
name 978174line_configuration50underground_line_conductor52;
};

object underground_line_conductor {
conductor_gmr 0.008830;
conductor_resistance 1.540000;
shield_resistance 0.000000;
neutral_gmr 0.002080;
outer_diameter 0.980000;
neutral_strands 6.000000;
neutral_resistance 14.872000;
neutral_diameter 0.064000;
conductor_diameter 0.292000;
shield_gmr 0.000000;
name 978174line_configuration50underground_line_conductor53;
};

object underground_line_conductor {
conductor_gmr 0.008830;
conductor_resistance 1.540000;
shield_resistance 0.000000;
neutral_gmr 0.002080;
outer_diameter 0.980000;
neutral_strands 6.000000;
neutral_resistance 14.872000;
neutral_diameter 0.064000;
conductor_diameter 0.292000;
shield_gmr 0.000000;
name 978174line_configuration50underground_line_conductor54;
};

object underground_line_conductor {
conductor_gmr 0.008830;
conductor_resistance 1.540000;
shield_resistance 0.000000;
neutral_gmr 0.002080;
outer_diameter 0.980000;
neutral_strands 6.000000;
neutral_resistance 14.872000;
neutral_diameter 0.064000;
conductor_diameter 0.292000;
shield_gmr 0.000000;
name 978174line_configuration50underground_line_conductor55;
};

object fuse {
phases B;
from nodeF28653x1978174;
name F28653x1;
current_limit 9999.0 A;
to node978192F28653x1;
};

object underground_line {
phases B;
from node978192F28653x1;
name 978192;
to node949317978192;
length 40;
configuration 978192line_configuration58;
};

object line_configuration {
name 978192line_configuration58;
conductor_A 978192line_configuration58underground_line_conductor60;
spacing 978192line_configuration58line_spacing59;
conductor_N 978192line_configuration58underground_line_conductor62;
conductor_B 978192line_configuration58underground_line_conductor61;
conductor_C 978192line_configuration58underground_line_conductor63;
};

object line_spacing {
distance_AN 0.000000;
name 978192line_configuration58line_spacing59;
distance_CN 0.000000;
distance_BC 0.500000;
distance_AB 0.500000;
distance_BN 0.000000;
distance_AC 1.000000;
};

object underground_line_conductor {
conductor_gmr 0.008830;
conductor_resistance 1.540000;
shield_resistance 0.000000;
neutral_gmr 0.002080;
outer_diameter 0.980000;
neutral_strands 6.000000;
neutral_resistance 14.872000;
neutral_diameter 0.064000;
conductor_diameter 0.292000;
shield_gmr 0.000000;
name 978192line_configuration58underground_line_conductor60;
};

object underground_line_conductor {
conductor_gmr 0.008830;
conductor_resistance 1.540000;
shield_resistance 0.000000;
neutral_gmr 0.002080;
outer_diameter 0.980000;
neutral_strands 6.000000;
neutral_resistance 14.872000;
neutral_diameter 0.064000;
conductor_diameter 0.292000;
shield_gmr 0.000000;
name 978192line_configuration58underground_line_conductor61;
};

object underground_line_conductor {
conductor_gmr 0.008830;
conductor_resistance 1.540000;
shield_resistance 0.000000;
neutral_gmr 0.002080;
outer_diameter 0.980000;
neutral_strands 6.000000;
neutral_resistance 14.872000;
neutral_diameter 0.064000;
conductor_diameter 0.292000;
shield_gmr 0.000000;
name 978192line_configuration58underground_line_conductor62;
};

object underground_line_conductor {
conductor_gmr 0.008830;
conductor_resistance 1.540000;
shield_resistance 0.000000;
neutral_gmr 0.002080;
outer_diameter 0.980000;
neutral_strands 6.000000;
neutral_resistance 14.872000;
neutral_diameter 0.064000;
conductor_diameter 0.292000;
shield_gmr 0.000000;
name 978192line_configuration58underground_line_conductor63;
};

object underground_line {
phases B;
from node949317978192;
name 949317;
to node949318949317;
length 469;
configuration 949317line_configuration65;
};

object line_configuration {
name 949317line_configuration65;
spacing 949317line_configuration65line_spacing66;
conductor_N 949317line_configuration65underground_line_conductor69;
conductor_B 949317line_configuration65underground_line_conductor68;
conductor_A 949317line_configuration65underground_line_conductor67;
conductor_C 949317line_configuration65underground_line_conductor70;
};

object line_spacing {
distance_AN 0.000000;
name 949317line_configuration65line_spacing66;
distance_CN 0.000000;
distance_BC 0.500000;
distance_AB 0.500000;
distance_BN 0.000000;
distance_AC 1.000000;
};

object underground_line_conductor {
conductor_gmr 0.008830;
conductor_resistance 1.540000;
shield_resistance 0.000000;
neutral_gmr 0.002080;
outer_diameter 0.980000;
neutral_strands 6.000000;
neutral_resistance 14.872000;
neutral_diameter 0.064000;
conductor_diameter 0.292000;
shield_gmr 0.000000;
name 949317line_configuration65underground_line_conductor67;
};

object underground_line_conductor {
conductor_gmr 0.008830;
conductor_resistance 1.540000;
shield_resistance 0.000000;
neutral_gmr 0.002080;
outer_diameter 0.980000;
neutral_strands 6.000000;
neutral_resistance 14.872000;
neutral_diameter 0.064000;
conductor_diameter 0.292000;
shield_gmr 0.000000;
name 949317line_configuration65underground_line_conductor68;
};

object underground_line_conductor {
conductor_gmr 0.008830;
conductor_resistance 1.540000;
shield_resistance 0.000000;
neutral_gmr 0.002080;
outer_diameter 0.980000;
neutral_strands 6.000000;
neutral_resistance 14.872000;
neutral_diameter 0.064000;
conductor_diameter 0.292000;
shield_gmr 0.000000;
name 949317line_configuration65underground_line_conductor69;
};

object underground_line_conductor {
conductor_gmr 0.008830;
conductor_resistance 1.540000;
shield_resistance 0.000000;
neutral_gmr 0.002080;
outer_diameter 0.980000;
neutral_strands 6.000000;
neutral_resistance 14.872000;
neutral_diameter 0.064000;
conductor_diameter 0.292000;
shield_gmr 0.000000;
name 949317line_configuration65underground_line_conductor70;
};

object underground_line {
phases B;
from node949318949317;
name 949318;
to nodeT14104949318;
length 519;
configuration 949318line_configuration72;
};

object line_configuration {
name 949318line_configuration72;
conductor_N 949318line_configuration72underground_line_conductor76;
spacing 949318line_configuration72line_spacing73;
conductor_A 949318line_configuration72underground_line_conductor74;
conductor_C 949318line_configuration72underground_line_conductor77;
conductor_B 949318line_configuration72underground_line_conductor75;
};

object line_spacing {
distance_AN 0.000000;
name 949318line_configuration72line_spacing73;
distance_CN 0.000000;
distance_BC 0.500000;
distance_AB 0.500000;
distance_BN 0.000000;
distance_AC 1.000000;
};

object underground_line_conductor {
conductor_gmr 0.008830;
conductor_resistance 1.540000;
shield_resistance 0.000000;
neutral_gmr 0.002080;
outer_diameter 0.980000;
neutral_strands 6.000000;
neutral_resistance 14.872000;
neutral_diameter 0.064000;
conductor_diameter 0.292000;
shield_gmr 0.000000;
name 949318line_configuration72underground_line_conductor74;
};

object underground_line_conductor {
conductor_gmr 0.008830;
conductor_resistance 1.540000;
shield_resistance 0.000000;
neutral_gmr 0.002080;
outer_diameter 0.980000;
neutral_strands 6.000000;
neutral_resistance 14.872000;
neutral_diameter 0.064000;
conductor_diameter 0.292000;
shield_gmr 0.000000;
name 949318line_configuration72underground_line_conductor75;
};

object underground_line_conductor {
conductor_gmr 0.008830;
conductor_resistance 1.540000;
shield_resistance 0.000000;
neutral_gmr 0.002080;
outer_diameter 0.980000;
neutral_strands 6.000000;
neutral_resistance 14.872000;
neutral_diameter 0.064000;
conductor_diameter 0.292000;
shield_gmr 0.000000;
name 949318line_configuration72underground_line_conductor76;
};

object underground_line_conductor {
conductor_gmr 0.008830;
conductor_resistance 1.540000;
shield_resistance 0.000000;
neutral_gmr 0.002080;
outer_diameter 0.980000;
neutral_strands 6.000000;
neutral_resistance 14.872000;
neutral_diameter 0.064000;
conductor_diameter 0.292000;
shield_gmr 0.000000;
name 949318line_configuration72underground_line_conductor77;
};

object underground_line {
phases B;
from node949318949317;
name 949319;
to nodeT14100949319;
length 40;
configuration 949319line_configuration79;
};

object line_configuration {
name 949319line_configuration79;
spacing 949319line_configuration79line_spacing80;
conductor_N 949319line_configuration79underground_line_conductor83;
conductor_A 949319line_configuration79underground_line_conductor81;
conductor_C 949319line_configuration79underground_line_conductor84;
conductor_B 949319line_configuration79underground_line_conductor82;
};

object line_spacing {
distance_AN 0.000000;
name 949319line_configuration79line_spacing80;
distance_CN 0.000000;
distance_BC 0.500000;
distance_AB 0.500000;
distance_BN 0.000000;
distance_AC 1.000000;
};

object underground_line_conductor {
conductor_gmr 0.008830;
conductor_resistance 1.540000;
shield_resistance 0.000000;
neutral_gmr 0.002080;
outer_diameter 0.980000;
neutral_strands 6.000000;
neutral_resistance 14.872000;
neutral_diameter 0.064000;
conductor_diameter 0.292000;
shield_gmr 0.000000;
name 949319line_configuration79underground_line_conductor81;
};

object underground_line_conductor {
conductor_gmr 0.008830;
conductor_resistance 1.540000;
shield_resistance 0.000000;
neutral_gmr 0.002080;
outer_diameter 0.980000;
neutral_strands 6.000000;
neutral_resistance 14.872000;
neutral_diameter 0.064000;
conductor_diameter 0.292000;
shield_gmr 0.000000;
name 949319line_configuration79underground_line_conductor82;
};

object underground_line_conductor {
conductor_gmr 0.008830;
conductor_resistance 1.540000;
shield_resistance 0.000000;
neutral_gmr 0.002080;
outer_diameter 0.980000;
neutral_strands 6.000000;
neutral_resistance 14.872000;
neutral_diameter 0.064000;
conductor_diameter 0.292000;
shield_gmr 0.000000;
name 949319line_configuration79underground_line_conductor83;
};

object underground_line_conductor {
conductor_gmr 0.008830;
conductor_resistance 1.540000;
shield_resistance 0.000000;
neutral_gmr 0.002080;
outer_diameter 0.980000;
neutral_strands 6.000000;
neutral_resistance 14.872000;
neutral_diameter 0.064000;
conductor_diameter 0.292000;
shield_gmr 0.000000;
name 949319line_configuration79underground_line_conductor84;
};

object transformer {
phases BS;
from nodeT14100949319;
name T14100;
to nodeS1806-33-073T14100;
configuration T14100transformer_configuration86;
};

object transformer_configuration {
powerC_rating 50 kVA;
name T14100transformer_configuration86;
shunt_impedance 10000+10000j;
secondary_voltage 240.0;
connect_type SINGLE_PHASE_CENTER_TAPPED;
impedance 0.00033+0.0022j;
primary_voltage 7200.0;
powerB_rating 50 kVA;
powerA_rating 50 kVA;
};

object triplex_node {
phases BS;
power_12 100;
name S1806-33-073;
parent nodeS1806-33-073T14100;
nominal_voltage 120;
};

object transformer {
phases BS;
from node949317978192;
name T14102;
to nodeS1806-32-065T14102;
configuration T14102transformer_configuration89;
};

object transformer_configuration {
powerC_rating 50 kVA;
name T14102transformer_configuration89;
shunt_impedance 10000+10000j;
secondary_voltage 240.0;
connect_type SINGLE_PHASE_CENTER_TAPPED;
impedance 0.00033+0.0022j;
primary_voltage 7200.0;
powerB_rating 50 kVA;
powerA_rating 50 kVA;
};

object triplex_node {
phases BS;
power_12 100;
name S1806-32-065;
parent nodeS1806-32-065T14102;
nominal_voltage 120;
};

object triplex_node {
phases BS;
power_12 100;
name S1806-33-042;
parent nodeS1806-32-065T14102;
nominal_voltage 120;
};

object underground_line {
phases C;
from node978174978172;
name 978200;
to nodeR2911x1978200;
length 314;
configuration 978200line_configuration93;
};

object line_configuration {
name 978200line_configuration93;
spacing 978200line_configuration93line_spacing94;
conductor_N 978200line_configuration93underground_line_conductor97;
conductor_C 978200line_configuration93underground_line_conductor98;
conductor_B 978200line_configuration93underground_line_conductor96;
conductor_A 978200line_configuration93underground_line_conductor95;
};

object line_spacing {
distance_AN 0.000000;
name 978200line_configuration93line_spacing94;
distance_CN 0.000000;
distance_BC 0.500000;
distance_AB 0.500000;
distance_BN 0.000000;
distance_AC 1.000000;
};

object underground_line_conductor {
conductor_gmr 0.008830;
conductor_resistance 1.540000;
shield_resistance 0.000000;
neutral_gmr 0.002080;
outer_diameter 0.980000;
neutral_strands 6.000000;
neutral_resistance 14.872000;
neutral_diameter 0.064000;
conductor_diameter 0.292000;
shield_gmr 0.000000;
name 978200line_configuration93underground_line_conductor95;
};

object underground_line_conductor {
conductor_gmr 0.008830;
conductor_resistance 1.540000;
shield_resistance 0.000000;
neutral_gmr 0.002080;
outer_diameter 0.980000;
neutral_strands 6.000000;
neutral_resistance 14.872000;
neutral_diameter 0.064000;
conductor_diameter 0.292000;
shield_gmr 0.000000;
name 978200line_configuration93underground_line_conductor96;
};

object underground_line_conductor {
conductor_gmr 0.008830;
conductor_resistance 1.540000;
shield_resistance 0.000000;
neutral_gmr 0.002080;
outer_diameter 0.980000;
neutral_strands 6.000000;
neutral_resistance 14.872000;
neutral_diameter 0.064000;
conductor_diameter 0.292000;
shield_gmr 0.000000;
name 978200line_configuration93underground_line_conductor97;
};

object underground_line_conductor {
conductor_gmr 0.008830;
conductor_resistance 1.540000;
shield_resistance 0.000000;
neutral_gmr 0.002080;
outer_diameter 0.980000;
neutral_strands 6.000000;
neutral_resistance 14.872000;
neutral_diameter 0.064000;
conductor_diameter 0.292000;
shield_gmr 0.000000;
name 978200line_configuration93underground_line_conductor98;
};

object fuse {
phases CN;
from nodeR2911x1978200;
name R2911x1;
current_limit 9999.0 A;
to node839461R2911x1;
};

object overhead_line {
phases CN;
from node839461R2911x1;
to node839464839461;
length 60;
configuration 839461line_configuration101;
name 839461;
};

object line_configuration {
name 839461line_configuration101;
spacing 839461line_configuration101line_spacing102;
conductor_N 839461line_configuration101overhead_line_conductor105;
conductor_A 839461line_configuration101overhead_line_conductor103;
conductor_C 839461line_configuration101overhead_line_conductor106;
conductor_B 839461line_configuration101overhead_line_conductor104;
};

object line_spacing {
distance_BC 7.0;
name 839461line_configuration101line_spacing102;
distance_CN 5.0;
distance_AN 4.272002;
distance_AB 2.5;
distance_AC 4.5;
distance_BN 5.656854;
};

object overhead_line_conductor {
resistance 0.185900;
name 839461line_configuration101overhead_line_conductor103;
geometric_mean_radius 0.031300;
};

object overhead_line_conductor {
resistance 0.185900;
name 839461line_configuration101overhead_line_conductor104;
geometric_mean_radius 0.031300;
};

object overhead_line_conductor {
resistance 2.57;
name 839461line_configuration101overhead_line_conductor105;
geometric_mean_radius 0.00437;
};

object overhead_line_conductor {
resistance 2.57;
name 839461line_configuration101overhead_line_conductor106;
geometric_mean_radius 0.00437;
};

object overhead_line {
phases CN;
from node839464839461;
name 839464;
to node839466839464;
length 111;
configuration 839464line_configuration108;
};

object line_configuration {
name 839464line_configuration108;
spacing 839464line_configuration108line_spacing109;
conductor_N 839464line_configuration108overhead_line_conductor112;
conductor_A 839464line_configuration108overhead_line_conductor110;
conductor_C 839464line_configuration108overhead_line_conductor113;
conductor_B 839464line_configuration108overhead_line_conductor111;
};

object line_spacing {
distance_BC 7.0;
name 839464line_configuration108line_spacing109;
distance_CN 5.0;
distance_AN 4.272002;
distance_AB 2.5;
distance_AC 4.5;
distance_BN 5.656854;
};

object overhead_line_conductor {
resistance 0.185900;
name 839464line_configuration108overhead_line_conductor110;
geometric_mean_radius 0.031300;
};

object overhead_line_conductor {
resistance 0.185900;
name 839464line_configuration108overhead_line_conductor111;
geometric_mean_radius 0.031300;
};

object overhead_line_conductor {
resistance 2.57;
name 839464line_configuration108overhead_line_conductor112;
geometric_mean_radius 0.00437;
};

object overhead_line_conductor {
resistance 2.57;
name 839464line_configuration108overhead_line_conductor113;
geometric_mean_radius 0.00437;
};

object overhead_line {
phases CN;
from node839466839464;
name 839466;
to node839469839466;
length 207;
configuration 839466line_configuration115;
};

object line_configuration {
name 839466line_configuration115;
spacing 839466line_configuration115line_spacing116;
conductor_N 839466line_configuration115overhead_line_conductor119;
conductor_A 839466line_configuration115overhead_line_conductor117;
conductor_C 839466line_configuration115overhead_line_conductor120;
conductor_B 839466line_configuration115overhead_line_conductor118;
};

object line_spacing {
distance_BC 7.0;
name 839466line_configuration115line_spacing116;
distance_CN 5.0;