clock {
	timezone EST+8EDT;
	starttime '2000-01-01 0:00:00';
	stoptime '2000-01-01 1:00:00';
};

#set profiler=1 
module tape;
module generators;
module powerflow {
	solver_method NR;
	default_maximum_voltage_error 1e-6;
};

object regulator:4383 {
	phases ABCN;
	from R1-12-47-1_node_617;
	name R1-12-47-1_reg_1;
	to R1-12-47-1_meter_21;
	configuration feeder_reg_cfg;
};

object regulator_configuration:4384 {
	Control OUTPUT_VOLTAGE;
	raise_taps 16;
	name feeder_reg_cfg;
	band_center 7520.0;
	tap_pos_A 0;
	tap_pos_B 0;
	connect_type WYE_WYE;
	time_delay 30;
	regulation 0.10;
	lower_taps 16;
	tap_pos_C 0;
	band_width 120;
};

object capacitor:4380 {
	control VOLT;
	phases ABCN;
	capacitor_A 0.15 MVAr;
	name R1-12-47-1_cap_1;
	parent R1-12-47-1_node_422;
	capacitor_C 0.15 MVAr;
	capacitor_B 0.15 MVAr;
	pt_phase B;
	time_delay 30.0;
	nominal_voltage 7216.88;
	cap_nominal_voltage 7220;
	voltage_set_low 7100;
	switchC CLOSED;
	control_level INDIVIDUAL;
	switchA CLOSED;
	switchB CLOSED;
	phases_connected ABC;
	dwell_time 30.0;
	voltage_set_high 7300;
};

object capacitor:4381 {
	control VOLT;
	phases ABCN;
	capacitor_A 0.3 MVAr;
	name R1-12-47-1_cap_2;
	parent R1-12-47-1_node_216;
	capacitor_C 0.3 MVAr;
	capacitor_B 0.3 MVAr;
	pt_phase B;
	time_delay 30.0;
	nominal_voltage 7216.88;
	cap_nominal_voltage 7220;
	voltage_set_low 7100;
	control_level INDIVIDUAL;
	phases_connected ABC;
	dwell_time 30.0;
	voltage_set_high 7300;
};

object capacitor {
	control MANUAL;
	phases CN;
	capacitor_A 0.15 MVAr;
	name R1-12-47-1_cap_3;
	parent R1-12-47-1_node_248;
	capacitor_B 0.15 MVAr;
	pt_phase C;
	time_delay 30.0;
	nominal_voltage 7216.88;
	cap_nominal_voltage 7216.88;
	capacitor_C 0.15 MVAr;
	switchC CLOSED;
	control_level INDIVIDUAL;
	switchA CLOSED;
	switchB CLOSED;
	phases_connected C;
	dwell_time 30.0;
};

object fuse:4249 {
	status CLOSED;
	phases AN;
	from R1-12-47-1_node_596;
	name R1-12-47-1_fuse_1;
	current_limit 50000;
	to R1-12-47-1_node_599;
};

object fuse:4250 {
	status CLOSED;
	phases AN;
	from R1-12-47-1_node_594;
	name R1-12-47-1_fuse_2;
	current_limit 50000;
	to R1-12-47-1_node_595;
};

object fuse:4251 {
	status CLOSED;
	phases AN;
	from R1-12-47-1_node_508;
	name R1-12-47-1_fuse_3;
	current_limit 50000;
	to R1-12-47-1_node_510;
};

object fuse:4252 {
	status CLOSED;
	phases AN;
	from R1-12-47-1_node_503;
	name R1-12-47-1_fuse_4;
	current_limit 50000;
	to R1-12-47-1_node_511;
};

object fuse:4253 {
	status CLOSED;
	phases AN;
	from R1-12-47-1_node_512;
	name R1-12-47-1_fuse_5;
	current_limit 50000;
	to R1-12-47-1_node_513;
};

object fuse:4254 {
	status CLOSED;
	phases AN;
	from R1-12-47-1_node_474;
	name R1-12-47-1_fuse_6;
	current_limit 50000;
	to R1-12-47-1_node_477;
};

object fuse:4255 {
	status CLOSED;
	phases AN;
	from R1-12-47-1_node_474;
	name R1-12-47-1_fuse_7;
	current_limit 50000;
	to R1-12-47-1_node_480;
};

object fuse:4256 {
	status CLOSED;
	phases AN;
	from R1-12-47-1_node_522;
	name R1-12-47-1_fuse_8;
	current_limit 50000;
	to R1-12-47-1_node_524;
};

object fuse:4257 {
	status CLOSED;
	phases AN;
	from R1-12-47-1_node_576;
	name R1-12-47-1_fuse_9;
	current_limit 50000;
	to R1-12-47-1_node_577;
};

object fuse:4258 {
	status CLOSED;
	phases AN;
	from R1-12-47-1_node_515;
	name R1-12-47-1_fuse_10;
	current_limit 50000;
	to R1-12-47-1_node_518;
};

object fuse:4259 {
	status CLOSED;
	phases AN;
	from R1-12-47-1_node_580;
	name R1-12-47-1_fuse_11;
	current_limit 50000;
	to R1-12-47-1_node_581;
};

object fuse:4260 {
	status CLOSED;
	phases BN;
	from R1-12-47-1_node_562;
	name R1-12-47-1_fuse_12;
	current_limit 50000;
	to R1-12-47-1_node_574;
};

object fuse:4261 {
	status CLOSED;
	phases CN;
	from R1-12-47-1_node_561;
	name R1-12-47-1_fuse_13;
	current_limit 50000;
	to R1-12-47-1_node_567;
};

object fuse:4262 {
	status CLOSED;
	phases AN;
	from R1-12-47-1_node_485;
	name R1-12-47-1_fuse_14;
	current_limit 50000;
	to R1-12-47-1_node_487;
};

object fuse:4263 {
	status CLOSED;
	phases AN;
	from R1-12-47-1_node_560;
	name R1-12-47-1_fuse_15;
	current_limit 50000;
	to R1-12-47-1_node_566;
};

object fuse:4264 {
	status CLOSED;
	phases AN;
	from R1-12-47-1_node_569;
	name R1-12-47-1_fuse_16;
	current_limit 50000;
	to R1-12-47-1_node_570;
};

object fuse:4265 {
	status CLOSED;
	phases AN;
	from R1-12-47-1_node_496;
	name R1-12-47-1_fuse_17;
	current_limit 50000;
	to R1-12-47-1_node_498;
};

object fuse:4266 {
	status CLOSED;
	phases AN;
	from R1-12-47-1_node_490;
	name R1-12-47-1_fuse_18;
	current_limit 50000;
	to R1-12-47-1_node_492;
};

object fuse:4267 {
	status CLOSED;
	phases CN;
	from R1-12-47-1_node_559;
	name R1-12-47-1_fuse_19;
	current_limit 50000;
	to R1-12-47-1_node_563;
};

object fuse:4268 {
	status CLOSED;
	phases AN;
	from R1-12-47-1_node_417;
	name R1-12-47-1_fuse_20;
	current_limit 50000;
	to R1-12-47-1_node_418;
};

object fuse:4269 {
	status CLOSED;
	phases AN;
	from R1-12-47-1_node_552;
	name R1-12-47-1_fuse_21;
	current_limit 50000;
	to R1-12-47-1_node_553;
};

object fuse:4270 {
	status CLOSED;
	phases AN;
	from R1-12-47-1_node_461;
	name R1-12-47-1_fuse_22;
	current_limit 50000;
	to R1-12-47-1_node_466;
};

object fuse:4271 {
	status CLOSED;
	phases CN;
	from R1-12-47-1_node_551;
	name R1-12-47-1_fuse_23;
	current_limit 50000;
	to R1-12-47-1_node_555;
};

object fuse:4272 {
	status CLOSED;
	phases ABCN;
	from R1-12-47-1_node_456;
	name R1-12-47-1_fuse_24;
	current_limit 50000;
	to R1-12-47-1_node_457;
};

object fuse:4273 {
	status CLOSED;
	phases AN;
	from R1-12-47-1_node_532;
	name R1-12-47-1_fuse_25;
	current_limit 50000;
	to R1-12-47-1_node_534;
};

object fuse:4274 {
	status CLOSED;
	phases AN;
	from R1-12-47-1_node_547;
	name R1-12-47-1_fuse_26;
	current_limit 50000;
	to R1-12-47-1_node_558;
};

object fuse:4275 {
	status CLOSED;
	phases CN;
	from R1-12-47-1_node_546;
	name R1-12-47-1_fuse_27;
	current_limit 50000;
	to R1-12-47-1_node_548;
};

object fuse:4276 {
	status CLOSED;
	phases BN;
	from R1-12-47-1_node_449;
	name R1-12-47-1_fuse_28;
	current_limit 50000;
	to R1-12-47-1_node_450;
};

object fuse:4277 {
	status CLOSED;
	phases BN;
	from R1-12-47-1_node_546;
	name R1-12-47-1_fuse_29;
	current_limit 50000;
	to R1-12-47-1_node_556;
};

object fuse:4278 {
	status CLOSED;
	phases BN;
	from R1-12-47-1_node_446;
	name R1-12-47-1_fuse_30;
	current_limit 50000;
	to R1-12-47-1_node_447;
};

object fuse:4279 {
	status CLOSED;
	phases AN;
	from R1-12-47-1_node_326;
	name R1-12-47-1_fuse_31;
	current_limit 50000;
	to R1-12-47-1_node_327;
};

object fuse:4280 {
	status CLOSED;
	phases BN;
	from R1-12-47-1_node_539;
	name R1-12-47-1_fuse_32;
	current_limit 50000;
	to R1-12-47-1_node_541;
};

object fuse:4281 {
	status CLOSED;
	phases AN;
	from R1-12-47-1_node_540;
	name R1-12-47-1_fuse_33;
	current_limit 50000;
	to R1-12-47-1_node_545;
};

object fuse:4282 {
	status CLOSED;
	phases ABCN;
	from R1-12-47-1_node_434;
	name R1-12-47-1_fuse_34;
	current_limit 50000;
	to R1-12-47-1_node_435;
};

object fuse:4283 {
	status CLOSED;
	phases AN;
	from R1-12-47-1_node_355;
	name R1-12-47-1_fuse_35;
	current_limit 50000;
	to R1-12-47-1_node_356;
};

object fuse:4284 {
	status CLOSED;
	phases CN;
	from R1-12-47-1_node_359;
	name R1-12-47-1_fuse_36;
	current_limit 50000;
	to R1-12-47-1_node_419;
};

object fuse:4285 {
	status CLOSED;
	phases AN;
	from R1-12-47-1_node_229;
	name R1-12-47-1_fuse_37;
	current_limit 50000;
	to R1-12-47-1_node_232;
};

object fuse:4286 {
	status CLOSED;
	phases AN;
	from R1-12-47-1_node_538;
	name R1-12-47-1_fuse_38;
	current_limit 50000;
	to R1-12-47-1_node_543;
};

object fuse:4287 {
	status CLOSED;
	phases AN;
	from R1-12-47-1_node_543;
	name R1-12-47-1_fuse_39;
	current_limit 50000;
	to R1-12-47-1_node_544;
};

object fuse:4288 {
	status CLOSED;
	phases AN;
	from R1-12-47-1_node_342;
	name R1-12-47-1_fuse_40;
	current_limit 50000;
	to R1-12-47-1_node_354;
};

object fuse:4289 {
	status CLOSED;
	phases AN;
	from R1-12-47-1_node_335;
	name R1-12-47-1_fuse_41;
	current_limit 50000;
	to R1-12-47-1_node_336;
};

object fuse:4290 {
	status CLOSED;
	phases CN;
	from R1-12-47-1_node_536;
	name R1-12-47-1_fuse_42;
	current_limit 50000;
	to R1-12-47-1_node_537;
};

object fuse:4291 {
	status CLOSED;
	phases AN;
	from R1-12-47-1_node_346;
	name R1-12-47-1_fuse_43;
	current_limit 50000;
	to R1-12-47-1_node_410;
};

object fuse:4292 {
	status CLOSED;
	phases CN;
	from R1-12-47-1_node_345;
	name R1-12-47-1_fuse_44;
	current_limit 50000;
	to R1-12-47-1_node_358;
};

object fuse:4293 {
	status CLOSED;
	phases CN;
	from R1-12-47-1_node_441;
	name R1-12-47-1_fuse_45;
	current_limit 50000;
	to R1-12-47-1_node_442;
};

object fuse:4294 {
	status CLOSED;
	phases AN;
	from R1-12-47-1_node_420;
	name R1-12-47-1_fuse_46;
	current_limit 50000;
	to R1-12-47-1_node_421;
};

object fuse:4295 {
	status CLOSED;
	phases ABCN;
	from R1-12-47-1_node_439;
	name R1-12-47-1_fuse_47;
	current_limit 50000;
	to R1-12-47-1_node_440;
};

object fuse:4296 {
	status CLOSED;
	phases ABCN;
	from R1-12-47-1_node_217;
	name R1-12-47-1_fuse_48;
	current_limit 50000;
	to R1-12-47-1_node_334;
};

object fuse:4297 {
	status CLOSED;
	phases BN;
	from R1-12-47-1_node_433;
	name R1-12-47-1_fuse_49;
	current_limit 50000;
	to R1-12-47-1_node_432;
};

object fuse:4298 {
	status CLOSED;
	phases AN;
	from R1-12-47-1_node_233;
	name R1-12-47-1_fuse_50;
	current_limit 50000;
	to R1-12-47-1_node_237;
};

object fuse:4299 {
	status CLOSED;
	phases ABCN;
	from R1-12-47-1_node_234;
	name R1-12-47-1_fuse_51;
	current_limit 50000;
	to R1-12-47-1_node_240;
};

object fuse:4300 {
	status CLOSED;
	phases CN;
	from R1-12-47-1_node_420;
	name R1-12-47-1_fuse_52;
	current_limit 50000;
	to R1-12-47-1_node_423;
};

object fuse:4301 {
	status CLOSED;
	phases AN;
	from R1-12-47-1_node_338;
	name R1-12-47-1_fuse_53;
	current_limit 50000;
	to R1-12-47-1_node_347;
};

object fuse:4302 {
	status CLOSED;
	phases AN;
	from R1-12-47-1_node_347;
	name R1-12-47-1_fuse_54;
	current_limit 50000;
	to R1-12-47-1_node_353;
};

object fuse:4303 {
	status CLOSED;
	phases CN;
	from R1-12-47-1_node_331;
	name R1-12-47-1_fuse_55;
	current_limit 50000;
	to R1-12-47-1_node_332;
};

object fuse:4304 {
	status CLOSED;
	phases AN;
	from R1-12-47-1_node_361;
	name R1-12-47-1_fuse_56;
	current_limit 50000;
	to R1-12-47-1_node_365;
};

object fuse:4305 {
	status CLOSED;
	phases CN;
	from R1-12-47-1_node_229;
	name R1-12-47-1_fuse_57;
	current_limit 50000;
	to R1-12-47-1_node_230;
};

object fuse:4306 {
	status CLOSED;
	phases AN;
	from R1-12-47-1_node_348;
	name R1-12-47-1_fuse_58;
	current_limit 50000;
	to R1-12-47-1_node_352;
};

object fuse:4307 {
	status CLOSED;
	phases ABCN;
	from R1-12-47-1_node_361;
	name R1-12-47-1_fuse_59;
	current_limit 50000;
	to R1-12-47-1_node_362;
};

object fuse:4308 {
	status CLOSED;
	phases CN;
	from R1-12-47-1_node_218;
	name R1-12-47-1_fuse_60;
	current_limit 50000;
	to R1-12-47-1_node_219;
};

object fuse:4309 {
	status CLOSED;
	phases AN;
	from R1-12-47-1_node_350;
	name R1-12-47-1_fuse_61;
	current_limit 50000;
	to R1-12-47-1_node_351;
};

object fuse:4310 {
	status CLOSED;
	phases BN;
	from R1-12-47-1_node_211;
	name R1-12-47-1_fuse_62;
	current_limit 50000;
	to R1-12-47-1_node_213;
};

object fuse:4311 {
	status CLOSED;
	phases AN;
	from R1-12-47-1_node_374;
	name R1-12-47-1_fuse_63;
	current_limit 50000;
	to R1-12-47-1_node_381;
};

object fuse:4312 {
	status CLOSED;
	phases CN;
	from R1-12-47-1_node_368;
	name R1-12-47-1_fuse_64;
	current_limit 50000;
	to R1-12-47-1_node_370;
};

object fuse:4313 {
	status CLOSED;
	phases AN;
	from R1-12-47-1_node_371;
	name R1-12-47-1_fuse_65;
	current_limit 50000;
	to R1-12-47-1_node_372;
};

object fuse:4314 {
	status CLOSED;
	phases BN;
	from R1-12-47-1_node_203;
	name R1-12-47-1_fuse_66;
	current_limit 50000;
	to R1-12-47-1_node_208;
};

object fuse:4315 {
	status CLOSED;
	phases AN;
	from R1-12-47-1_node_372;
	name R1-12-47-1_fuse_67;
	current_limit 50000;
	to R1-12-47-1_node_380;
};

object fuse:4316 {
	status CLOSED;
	phases AN;
	from R1-12-47-1_node_383;
	name R1-12-47-1_fuse_68;
	current_limit 50000;
	to R1-12-47-1_node_384;
};

object fuse:4317 {
	status CLOSED;
	phases AN;
	from R1-12-47-1_node_391;
	name R1-12-47-1_fuse_69;
	current_limit 50000;
	to R1-12-47-1_node_394;
};

object fuse:4318 {
	status CLOSED;
	phases BN;
	from R1-12-47-1_node_211;
	name R1-12-47-1_fuse_70;
	current_limit 50000;
	to R1-12-47-1_node_214;
};

object fuse:4319 {
	status CLOSED;
	phases BN;
	from R1-12-47-1_node_393;
	name R1-12-47-1_fuse_71;
	current_limit 50000;
	to R1-12-47-1_node_396;
};

object fuse:4320 {
	status CLOSED;
	phases BN;
	from R1-12-47-1_node_205;
	name R1-12-47-1_fuse_72;
	current_limit 50000;
	to R1-12-47-1_node_206;
};

object fuse:4321 {
	status CLOSED;
	phases BN;
	from R1-12-47-1_node_175;
	name R1-12-47-1_fuse_73;
	current_limit 50000;
	to R1-12-47-1_node_205;
};

object fuse:4322 {
	status CLOSED;
	phases AN;
	from R1-12-47-1_node_140;
	name R1-12-47-1_fuse_74;
	current_limit 50000;
	to R1-12-47-1_node_163;
};

object fuse:4323 {
	status CLOSED;
	phases CN;
	from R1-12-47-1_node_140;
	name R1-12-47-1_fuse_75;
	current_limit 50000;
	to R1-12-47-1_node_167;
};

object fuse:4324 {
	status CLOSED;
	phases CN;
	from R1-12-47-1_node_168;
	name R1-12-47-1_fuse_76;
	current_limit 50000;
	to R1-12-47-1_node_170;
};

object fuse:4325 {
	status CLOSED;
	phases AN;
	from R1-12-47-1_node_159;
	name R1-12-47-1_fuse_77;
	current_limit 50000;
	to R1-12-47-1_node_160;
};

object fuse:4326 {
	status CLOSED;
	phases BN;
	from R1-12-47-1_node_403;
	name R1-12-47-1_fuse_78;
	current_limit 50000;
	to R1-12-47-1_node_405;
};

object fuse:4327 {
	status CLOSED;
	phases CN;
	from R1-12-47-1_node_173;
	name R1-12-47-1_fuse_79;
	current_limit 50000;
	to R1-12-47-1_node_182;
};

object fuse:4328 {
	status CLOSED;
	phases CN;
	from R1-12-47-1_node_182;
	name R1-12-47-1_fuse_80;
	current_limit 50000;
	to R1-12-47-1_node_185;
};

object fuse:4329 {
	status CLOSED;
	phases AN;
	from R1-12-47-1_node_133;
	name R1-12-47-1_fuse_81;
	current_limit 50000;
	to R1-12-47-1_node_141;
};

object fuse:4330 {
	status CLOSED;
	phases AN;
	from R1-12-47-1_node_404;
	name R1-12-47-1_fuse_82;
	current_limit 50000;
	to R1-12-47-1_node_408;
};

object fuse:4331 {
	status CLOSED;
	phases CN;
	from R1-12-47-1_node_183;
	name R1-12-47-1_fuse_83;
	current_limit 50000;
	to R1-12-47-1_node_186;
};

object fuse:4332 {
	status CLOSED;
	phases AN;
	from R1-12-47-1_node_147;
	name R1-12-47-1_fuse_84;
	current_limit 50000;
	to R1-12-47-1_node_149;
};

object fuse:4333 {
	status CLOSED;
	phases BN;
	from R1-12-47-1_node_134;
	name R1-12-47-1_fuse_85;
	current_limit 50000;
	to R1-12-47-1_node_135;
};

object fuse:4334 {
	status CLOSED;
	phases CN;
	from R1-12-47-1_node_189;
	name R1-12-47-1_fuse_86;
	current_limit 50000;
	to R1-12-47-1_node_190;
};

object fuse:4335 {
	status CLOSED;
	phases BN;
	from R1-12-47-1_node_74;
	name R1-12-47-1_fuse_87;
	current_limit 50000;
	to R1-12-47-1_node_78;
};

object fuse:4336 {
	status CLOSED;
	phases CN;
	from R1-12-47-1_node_191;
	name R1-12-47-1_fuse_88;
	current_limit 50000;
	to R1-12-47-1_node_193;
};

object fuse:4337 {
	status CLOSED;
	phases AN;
	from R1-12-47-1_node_67;
	name R1-12-47-1_fuse_89;
	current_limit 50000;
	to R1-12-47-1_node_72;
};

object fuse:4338 {
	status CLOSED;
	phases AN;
	from R1-12-47-1_node_23;
	name R1-12-47-1_fuse_90;
	current_limit 50000;
	to R1-12-47-1_node_24;
};

object fuse:4339 {
	status CLOSED;
	phases BN;
	from R1-12-47-1_node_44;
	name R1-12-47-1_fuse_91;
	current_limit 50000;
	to R1-12-47-1_node_128;
};

object fuse:4340 {
	status CLOSED;
	phases CN;
	from R1-12-47-1_node_44;
	name R1-12-47-1_fuse_92;
	current_limit 50000;
	to R1-12-47-1_node_45;
};

object fuse:4341 {
	status CLOSED;
	phases BN;
	from R1-12-47-1_node_44;
	name R1-12-47-1_fuse_93;
	current_limit 50000;
	to R1-12-47-1_node_127;
};

object fuse:4342 {
	status CLOSED;
	phases AN;
	from R1-12-47-1_node_64;
	name R1-12-47-1_fuse_94;
	current_limit 50000;
	to R1-12-47-1_node_70;
};

object fuse:4343 {
	status CLOSED;
	phases CN;
	from R1-12-47-1_node_195;
	name R1-12-47-1_fuse_95;
	current_limit 50000;
	to R1-12-47-1_node_197;
};

object fuse:4344 {
	status CLOSED;
	phases CN;
	from R1-12-47-1_node_195;
	name R1-12-47-1_fuse_96;
	current_limit 50000;
	to R1-12-47-1_node_196;
};

object fuse:4345 {
	status CLOSED;
	phases AN;
	from R1-12-47-1_node_63;
	name R1-12-47-1_fuse_97;
	current_limit 50000;
	to R1-12-47-1_node_69;
};

object fuse:4346 {
	status CLOSED;
	phases ABCN;
	from R1-12-47-1_node_61;
	name R1-12-47-1_fuse_98;
	current_limit 50000;
	to R1-12-47-1_node_62;
};

object fuse:4347 {
	status CLOSED;
	phases AN;
	from R1-12-47-1_node_62;
	name R1-12-47-1_fuse_99;
	current_limit 50000;
	to R1-12-47-1_node_68;
};

object fuse:4348 {
	status CLOSED;
	phases AN;
	from R1-12-47-1_node_6;
	name R1-12-47-1_fuse_100;
	current_limit 50000;
	to R1-12-47-1_node_28;
};

object fuse:4349 {
	status CLOSED;
	phases AN;
	from R1-12-47-1_node_21;
	name R1-12-47-1_fuse_101;
	current_limit 50000;
	to R1-12-47-1_node_22;
};

object fuse:4350 {
	status CLOSED;
	phases AN;
	from R1-12-47-1_node_13;
	name R1-12-47-1_fuse_102;
	current_limit 50000;
	to R1-12-47-1_node_34;
};

object fuse:4351 {
	status CLOSED;
	phases ABCN;
	from R1-12-47-1_node_47;
	name R1-12-47-1_fuse_103;
	current_limit 50000;
	to R1-12-47-1_node_48;
};

object fuse:4352 {
	status CLOSED;
	phases BN;
	from R1-12-47-1_node_14;
	name R1-12-47-1_fuse_104;
	current_limit 50000;
	to R1-12-47-1_node_38;
};

object fuse:4353 {
	status CLOSED;
	phases AN;
	from R1-12-47-1_node_11;
	name R1-12-47-1_fuse_105;
	current_limit 50000;
	to R1-12-47-1_node_31;
};

object fuse:4354 {
	status CLOSED;
	phases ABCN;
	from R1-12-47-1_node_61;
	name R1-12-47-1_fuse_106;
	current_limit 50000;
	to R1-12-47-1_node_79;
};

object fuse:4355 {
	status CLOSED;
	phases AN;
	from R1-12-47-1_node_25;
	name R1-12-47-1_fuse_107;
	current_limit 50000;
	to R1-12-47-1_node_26;
};

object fuse:4356 {
	status CLOSED;
	phases BN;
	from R1-12-47-1_node_7;
	name R1-12-47-1_fuse_108;
	current_limit 50000;
	to R1-12-47-1_node_29;
};

object fuse:4357 {
	status CLOSED;
	phases CN;
	from R1-12-47-1_node_52;
	name R1-12-47-1_fuse_109;
	current_limit 50000;
	to R1-12-47-1_node_54;
};

object fuse:4358 {
	status CLOSED;
	phases AN;
	from R1-12-47-1_node_50;
	name R1-12-47-1_fuse_110;
	current_limit 50000;
	to R1-12-47-1_node_53;
};

object fuse:4359 {
	status CLOSED;
	phases BN;
	from R1-12-47-1_node_80;
	name R1-12-47-1_fuse_111;
	current_limit 50000;
	to R1-12-47-1_node_84;
};

object fuse:4360 {
	status CLOSED;
	phases AN;
	from R1-12-47-1_node_117;
	name R1-12-47-1_fuse_112;
	current_limit 50000;
	to R1-12-47-1_node_119;
};

object fuse:4361 {
	status CLOSED;
	phases CN;
	from R1-12-47-1_node_88;
	name R1-12-47-1_fuse_113;
	current_limit 50000;
	to R1-12-47-1_node_91;
};

object fuse:4362 {
	status CLOSED;
	phases AN;
	from R1-12-47-1_node_88;
	name R1-12-47-1_fuse_114;
	current_limit 50000;
	to R1-12-47-1_node_106;
};

object fuse:4363 {
	status CLOSED;
	phases AN;
	from R1-12-47-1_node_121;
	name R1-12-47-1_fuse_115;
	current_limit 50000;
	to R1-12-47-1_node_125;
};

object fuse:4364 {
	status CLOSED;
	phases CN;
	from R1-12-47-1_node_89;
	name R1-12-47-1_fuse_116;
	current_limit 50000;
	to R1-12-47-1_node_93;
};

object fuse:4365 {
	status CLOSED;
	phases AN;
	from R1-12-47-1_node_117;
	name R1-12-47-1_fuse_117;
	current_limit 50000;
	to R1-12-47-1_node_118;
};

object fuse:4366 {
	status CLOSED;
	phases AN;
	from R1-12-47-1_node_107;
	name R1-12-47-1_fuse_118;
	current_limit 50000;
	to R1-12-47-1_node_108;
};

object fuse:4367 {
	status CLOSED;
	phases CN;
	from R1-12-47-1_node_101;
	name R1-12-47-1_fuse_119;
	current_limit 50000;
	to R1-12-47-1_node_102;
};

object fuse:4368 {
	status CLOSED;
	phases AN;
	from R1-12-47-1_node_123;
	name R1-12-47-1_fuse_120;
	current_limit 50000;
	to R1-12-47-1_node_124;
};

object fuse:4369 {
	status CLOSED;
	phases CN;
	from R1-12-47-1_node_90;
	name R1-12-47-1_fuse_121;
	current_limit 50000;
	to R1-12-47-1_node_97;
};

object fuse:4370 {
	status CLOSED;
	phases CN;
	from R1-12-47-1_node_103;
	name R1-12-47-1_fuse_122;
	current_limit 50000;
	to R1-12-47-1_node_105;
};

object line_configuration:16 {
	conductor_N underground_line_conductor:2;
	spacing line_spacing:11;
	conductor_A underground_line_conductor:2;
};

object line_configuration:17 {
	conductor_N underground_line_conductor:2;
	spacing line_spacing:12;
	conductor_B underground_line_conductor:2;
};

object line_configuration:18 {
	conductor_N overhead_line_conductor:3;
	spacing line_spacing:11;
	conductor_A overhead_line_conductor:3;
};

object line_configuration:19 {
	spacing line_spacing:13;
	conductor_N overhead_line_conductor:3;
	conductor_A overhead_line_conductor:3;
	conductor_C overhead_line_conductor:3;
	conductor_B overhead_line_conductor:3;
};

object line_configuration:20 {
	conductor_N underground_line_conductor:2;
	spacing line_spacing:14;
	conductor_C underground_line_conductor:2;
};

object line_configuration:21 {
	conductor_N overhead_line_conductor:3;
	spacing line_spacing:14;
	conductor_C overhead_line_conductor:3;
};

object line_configuration:22 {
	spacing line_spacing:13;
	conductor_N overhead_line_conductor:4;
	conductor_A overhead_line_conductor:4;
	conductor_C overhead_line_conductor:4;
	conductor_B overhead_line_conductor:4;
};

object line_configuration:23 {
	conductor_N overhead_line_conductor:5;
	spacing line_spacing:11;
	conductor_A overhead_line_conductor:5;
};

object line_configuration:24 {
	conductor_N overhead_line_conductor:6;
	spacing line_spacing:14;
	conductor_C overhead_line_conductor:6;
};

object line_configuration:25 {
	spacing line_spacing:13;
	conductor_N underground_line_conductor:7;
	conductor_A underground_line_conductor:7;
	conductor_C underground_line_conductor:7;
	conductor_B underground_line_conductor:7;
};

object line_configuration:26 {
	spacing line_spacing:13;
	conductor_N underground_line_conductor:8;
	conductor_A underground_line_conductor:8;
	conductor_C underground_line_conductor:8;
	conductor_B underground_line_conductor:8;
};

object line_configuration:27 {
	conductor_N overhead_line_conductor:9;
	spacing line_spacing:11;
	conductor_A overhead_line_conductor:9;
};

object line_configuration:28 {
	conductor_N overhead_line_conductor:3;
	spacing line_spacing:12;
	conductor_B overhead_line_conductor:3;
};

object line_configuration:29 {
	conductor_N overhead_line_conductor:6;
	spacing line_spacing:11;
	conductor_A overhead_line_conductor:6;
};

object line_configuration:30 {
	conductor_N overhead_line_conductor:9;
	spacing line_spacing:14;
	conductor_C overhead_line_conductor:9;
};

object line_configuration:31 {
	conductor_N underground_line_conductor:2;
	spacing line_spacing:15;
	conductor_A underground_line_conductor:2;
	conductor_C underground_line_conductor:2;
};

object line_configuration:32 {
	spacing line_spacing:13;
	conductor_N overhead_line_conductor:10;
	conductor_A overhead_line_conductor:10;
	conductor_C overhead_line_conductor:10;
	conductor_B overhead_line_conductor:10;
};

object line_configuration:33 {
	conductor_N overhead_line_conductor:9;
	spacing line_spacing:12;
	conductor_B overhead_line_conductor:9;
};

object line_configuration:34 {
	conductor_N overhead_line_conductor:5;
	spacing line_spacing:12;
	conductor_B overhead_line_conductor:5;
};

object line_spacing:11 {
	distance_AN 51.6 in;
};

object line_spacing:12 {
	distance_BN 51.6 in;
};

object line_spacing:13 {
	distance_BC 57.6 in;
	distance_CN 51.6 in;
	distance_AN 51.6 in;
	distance_AB 57.6 in;
	distance_BN 51.6 in;
	distance_AC 57.6 in;
};

object line_spacing:14 {
	distance_CN 51.6 in;
};

object line_spacing:15 {
	distance_CN 51.6 in;
	distance_AN 51.6 in;
	distance_AC 57.6 in;
};

object load:651 {
	phases CN;
	load_class C;
	name R1-12-47-1_load_1;
	parent R1-12-47-1_meter_1;
	voltage_C -3608.44+6250j;
	constant_power_C 66446.0143+25680.8384j;
	nominal_voltage 480;
};

object load:652 {
	phases AN;
	load_class C;
	name R1-12-47-1_load_2;
	parent R1-12-47-1_meter_2;
	voltage_A 7216.88+0.0j;
	nominal_voltage 480;
	constant_power_A 8271.7473+9205.9446j;
};

object load:653 {
	phases CN;
	load_class C;
	name R1-12-47-1_load_3;
	parent R1-12-47-1_meter_3;
	voltage_C -3608.44+6250j;
	constant_power_C 36160.4072+13975.7002j;
	nominal_voltage 480;
};

object load:654 {
	phases ABCN;
	groupid three_phase;
	load_class C;
	name R1-12-47-1_load_4;
	parent R1-12-47-1_meter_4;
	voltage_B -3608.44-6250j;
	voltage_C -3608.44+6250j;
	voltage_A 7216.88+0.0j;
	constant_power_C 0+0j;
	constant_power_B 8339.1026+3255.4855j;
	constant_power_A 0+0j;
	nominal_voltage 480;
};

object load:655 {
	phases ABCN;
	groupid three_phase;
	load_class C;
	name R1-12-47-1_load_5;
	parent R1-12-47-1_meter_5;
	voltage_B -3608.44-6250j;
	voltage_C -3608.44+6250j;
	voltage_A 7216.88+0.0j;
	constant_power_C 0+0j;
	constant_power_B 20326.5626+7935.246j;
	constant_power_A 0+0j;
	nominal_voltage 480;
};

object load:656 {
	phases ABCN;
	groupid three_phase;
	load_class C;
	name R1-12-47-1_load_6;
	parent R1-12-47-1_meter_6;
	voltage_B -3608.44-6250j;
	voltage_C -3608.44+6250j;
	voltage_A 7216.88+0.0j;
	constant_power_C 0+0j;
	constant_power_B 15784.7299+6162.1691j;
	constant_power_A 0+0j;
	nominal_voltage 480;
};

object load:657 {
	phases ABCN;
	groupid three_phase;
	load_class C;
	name R1-12-47-1_load_7;
	parent R1-12-47-1_meter_7;
	voltage_B -3608.44-6250j;
	voltage_C -3608.44+6250j;
	voltage_A 7216.88+0.0j;
	constant_power_C 43757.1314+16911.7716j;
	constant_power_B 32165.11+12556.8728j;
	constant_power_A 7958.5631+8857.3899j;
	nominal_voltage 480;
};

object load:658 {
	phases AN;
	load_class C;
	name R1-12-47-1_load_8;
	parent R1-12-47-1_meter_8;
	voltage_A 7216.88+0.0j;
	nominal_voltage 480;
	constant_power_A 6411.0647+7135.1197j;
};

object load:659 {
	phases CN;
	load_class C;
	name R1-12-47-1_load_9;
	parent R1-12-47-1_meter_9;
	voltage_C -3608.44+6250j;
	constant_power_C 50746.1176+19612.9574j;
	nominal_voltage 480;
};

object load:660 {
	phases CN;
	load_class C;
	name R1-12-47-1_load_10;
	parent R1-12-47-1_meter_10;
	voltage_C -3608.44+6250j;
	constant_power_C 10534.1242+4071.3524j;
	nominal_voltage 480;
};

object load:661 {
	phases ABCN;
	groupid three_phase;
	load_class C;
	name R1-12-47-1_load_11;
	parent R1-12-47-1_meter_11;
	voltage_B -3608.44-6250j;
	voltage_C -3608.44+6250j;
	voltage_A 7216.88+0.0j;
	constant_power_C 0+0j;
	constant_power_B 9083.6653+3546.1539j;
	constant_power_A 0+0j;
	nominal_voltage 480;
};

object load:662 {
	phases CN;
	load_class C;
	name R1-12-47-1_load_12;
	parent R1-12-47-1_meter_12;
	voltage_C -3608.44+6250j;
	constant_power_C 27550.7864+10648.1525j;
	nominal_voltage 480;
};

object load:663 {
	phases AN;
	load_class A;
	name R1-12-47-1_load_13;
	parent R1-12-47-1_meter_13;
	voltage_A 7216.88+0.0j;
	nominal_voltage 480;
	constant_power_A 3076.5742+3424.0373j;
};

object load:664 {
	phases AN;
	load_class A;
	name R1-12-47-1_load_14;
	parent R1-12-47-1_meter_14;
	voltage_A 7216.88+0.0j;
	nominal_voltage 480;
	constant_power_A 1584.3436+1763.2767j;
};

object load:665 {
	phases AN;
	load_class A;
	name R1-12-47-1_load_15;
	parent R1-12-47-1_meter_15;
	voltage_A 7216.88+0.0j;
	nominal_voltage 480;
	constant_power_A 1547.4984+1722.2703j;
};

object load:666 {
	phases AN;
	load_class A;
	name R1-12-47-1_load_16;
	parent R1-12-47-1_meter_16;
	voltage_A 7216.88+0.0j;
	nominal_voltage 480;
	constant_power_A 6374.2195+7094.1132j;
};

object load:667 {
	phases AN;
	load_class A;
	name R1-12-47-1_load_17;
	parent R1-12-47-1_meter_17;
	voltage_A 7216.88+0.0j;
	nominal_voltage 480;
	constant_power_A 4163.5076+4633.7271j;
};

object load:668 {
	phases AN;
	load_class A;
	name R1-12-47-1_load_18;
	parent R1-12-47-1_meter_18;
	voltage_A 7216.88+0.0j;
	nominal_voltage 480;
	constant_power_A 6411.0647+7135.1197j;
};

object load:669 {
	phases ABCN;
	groupid three_phase;
	load_class A;
	name R1-12-47-1_load_19;
	parent R1-12-47-1_meter_19;
	voltage_B -3608.44-6250j;
	voltage_C -3608.44+6250j;
	voltage_A 7216.88+0.0j;
	constant_power_C 0+0j;
	constant_power_B 14370.0607+5609.8992j;
	constant_power_A 0+0j;
	nominal_voltage 480;
};

object load:670 {
	phases ABCN;
	groupid three_phase;
	load_class A;
	name R1-12-47-1_load_20;
	parent R1-12-47-1_meter_20;
	voltage_B -3608.44-6250j;
	voltage_C -3608.44+6250j;
	voltage_A 7216.88+0.0j;
	constant_power_C 0+0j;
	constant_power_B 10721.7033+4185.6243j;
	constant_power_A 0+0j;
	nominal_voltage 480;
};

object meter:2465 {
	phases CN;
	nominal_voltage 480;
	name R1-12-47-1_meter_1;
};

object meter:2466 {
	phases AN;
	nominal_voltage 480;
	name R1-12-47-1_meter_2;
};

object meter:2467 {
	phases CN;
	nominal_voltage 480;
	name R1-12-47-1_meter_3;
};

object meter:2468 {
	phases ABCN;
	nominal_voltage 480;
	name R1-12-47-1_meter_4;
};

object meter:2469 {
	phases ABCN;
	nominal_voltage 480;
	name R1-12-47-1_meter_5;
};

object meter:2470 {
	phases ABCN;
	nominal_voltage 480;
	name R1-12-47-1_meter_6;
};

object meter:2471 {
	phases ABCN;
	nominal_voltage 480;
	name R1-12-47-1_meter_7;
};

object meter:2472 {
	phases AN;
	nominal_voltage 480;
	name R1-12-47-1_meter_8;
};

object meter:2473 {
	phases CN;
	nominal_voltage 480;
	name R1-12-47-1_meter_9;
};

object meter:2474 {
	phases CN;
	nominal_voltage 480;
	name R1-12-47-1_meter_10;
};

object meter:2475 {
	phases ABCN;
	nominal_voltage 480;
	name R1-12-47-1_meter_11;
};

object meter:2476 {
	phases CN;
	nominal_voltage 480;
	name R1-12-47-1_meter_12;
};

object meter:2477 {
	phases AN;
	nominal_voltage 480;
	name R1-12-47-1_meter_13;
};

object meter:2478 {
	phases AN;
	nominal_voltage 480;
	name R1-12-47-1_meter_14;
};

object meter:2479 {
	phases AN;
	nominal_voltage 480;
	name R1-12-47-1_meter_15;
};

object meter:2480 {
	phases AN;
	nominal_voltage 480;
	name R1-12-47-1_meter_16;
};

object meter:2481 {
	phases AN;
	nominal_voltage 480;
	name R1-12-47-1_meter_17;
};
