clock {
	timezone PST+8PDT;
	starttime '2012-04-09 00:00:00';
	stoptime '2012-04-11 00:00:00';
};

#include "../schedules/appliance_schedules.glm"

#include "../schedules/water_and_setpoint_schedule_v5.glm"

#include "../schedules/commercial_schedules.glm"

#define stylesheet=http://gridlab-d.svn.sourceforge.net/viewvc/gridlab-d/trunk/core/gridlabd-2_0

#set minimum_timestep=300

#set profiler=1

#set relax_naming_rules=1

module tape {
};

module climate {
};

module residential {
	implicit_enduses NONE;
};

module powerflow {
	solver_method NR;
	NR_iteration_limit 50;
};

class player{
	double value;
};

object player {
// Will loop file for 40 years assuming the file has data for a 24 hour period
	name norm_feeder_loadshape;
	file ../load_shape_player.player;
	property value;
	loop 14600;
};

object csv_reader {
	name CsvReader;
	filename "../schedules/SCADA_weather_NC_gld_shifted.csv";
};

object climate {
	reader CsvReader;
	name Climate;
	tmyfile "../schedules/SCADA_weather_NC_gld_shifted.csv";
};

object transformer_configuration {
	name trans_config_to_feeder;
	primary_voltage 14400;
	install_type PADMOUNT;
	impedance 0.00033+0.0022j;
	secondary_voltage 7200.0;
	connect_type WYE_WYE;
	power_rating 16.1 MVA;
};

object meter {
	phases ABCN;
	nominal_voltage 14400;
	name network_node;
	bustype SWING;
};

object player {
	property voltage_A;
	file "../schedules/VA.player";
	loop 10;
	parent network_node;
};

object player {
	property voltage_B;
	file "../schedules/VB.player";
	loop 10;
	parent network_node;
};

object player {
	property voltage_C;
	file "../schedules/VC.player";
	loop 10;
	parent network_node;
};

object transformer {
	phases ABCN;
	from network_node;
	name substation_transformer;
	to FRIENDSHIP;
	configuration trans_config_to_feeder;
	groupid Distribution_Trans;
};

object triplex_node {
	phases BS;
	name S1806-04-063_B;
	parent nodeS1806-04-0231806-04-003_B;
	longitude 311.076319889;
	nominal_voltage 120;
	latitude 608.706212049;
};

object triplex_meter {
	phases CS;
	name nodeS1906-31-008T7003_C;
	longitude 178.820980414;
	nominal_voltage 120;
	latitude 391.665008777;
};

object node {
	phases A;
	name nodeF12241x1929718;
	longitude 67.8703814421;
	nominal_voltage 7200.0;
	latitude 809.330036882;
};

object node {
	phases CN;
	name node957895841526;
	longitude 383.450914744;
	nominal_voltage 7200.0;
	latitude 597.179102663;
};

object node {
	phases CN;
	name node839479839477;
	longitude 746.048068875;
	nominal_voltage 7200.0;
	latitude 642.216187736;
};

object triplex_node {
	phases AS;
	name S1906-20-101_A;
	parent nodeS1906-20-101T11936_A;
	longitude 75.0030661743;
	nominal_voltage 120;
	latitude 464.559700548;
};

object fuse {
	phases C;
	from nodeF7878x1841504;
	name F7878x1;
	current_limit 9999.0 A;
	longitude 212.985770656;
	to node927211F7878x1;
	latitude 1166.51400316;
};

object transformer {
	phases CS;
	from nodeT29618975122;
	name T29618_C;
	to nodeS1906-34-021T29618_C;
	configuration 1806-03-036_C-CONFIG;
	groupid Distribution_Trans;
};

object triplex_meter {
	phases CS;
	name nodeS1906-34-018T4423_C;
	longitude 175.900369204;
	nominal_voltage 120;
	latitude 827.59626731;
};

object node {
	phases BN;
	name node841139F28133x1;
	longitude 316.999481845;
	nominal_voltage 7200.0;
	latitude 548.080898148;
};

object overhead_line {
	phases C;
	from node840429840428;
	name 840429;
	longitude 207.086771095;
	to nodeFFRN1-F185x1840429;
	length 48;
	latitude 372.698901633;
	configuration 840428-LINECONFIG;
	groupid Distribution_Line;
};

object underground_line {
	phases A;
	from node840497982343;
	name 982349;
	longitude 85.1369125912;
	to node982347982349;
	length 684;
	latitude 658.533619746;
	configuration 982349-LINECONFIG;
	groupid Distribution_Line;
};

object triplex_node {
	phases BS;
	name S1806-04-028_B;
	parent nodeS1806-04-028T10519_B;
	longitude 310.582530461;
	nominal_voltage 120;
	latitude 632.778622197;
};

object fuse {
	phases B;
	from nodeR2918x1839805;
	name R2918x1;
	current_limit 9999.0 A;
	longitude 322.834708438;
	to node839806R2918x1;
	latitude 551.825882544;
};

object triplex_meter {
	phases BS;
	name nodeS1806-27-005T7804_B;
	longitude 671.742650501;
	nominal_voltage 120;
	latitude 750.505886643;
};

object node {
	phases B;
	name nodeR6914x1979057;
	longitude 505.11379489;
	nominal_voltage 7200.0;
	latitude 598.565233251;
};

object transformer {
	phases CS;
	from node1906-31-013840430;
	name 1906-31-013_C;
	to nodeS1906-31-0031906-31-013_C;
	configuration T7879_C-CONFIG;
	groupid Distribution_Trans;
};

object node {
	phases A;
	name node913045913044;
	longitude 130.798357846;
	nominal_voltage 7200.0;
	latitude 27.7955660033;
};

object underground_line {
	phases B;
	from node841826904509;
	name 841826;
	longitude 587.205548248;
	to node841828841826;
	length 332;
	latitude 1095.45657196;
	configuration 841826-LINECONFIG;
	groupid Distribution_Line;
};

object transformer {
	phases BS;
	from nodeT6916839720;
	name T6916_B;
	to nodeS1806-16-010T6916_B;
	configuration 1806-10-002_B-CONFIG;
	groupid Distribution_Trans;
};

object overhead_line {
	phases BN;
	from node985054949217;
	name 985054;
	longitude 300.003985811;
	to node985055985054;
	length 115;
	latitude 552.166335671;
	configuration 985054-LINECONFIG;
	groupid Distribution_Line;
};

object triplex_node {
	phases AS;
	name S1906-22-028_A;
	parent nodeS1906-22-0281906-22-023_A;
	longitude 82.5436367675;
	nominal_voltage 120;
	latitude 838.214426636;
};

object meter {
	phases ABCN;
	name FRIENDSHIP;
	longitude 800.0;
	nominal_voltage 7200.0;
	latitude 603.623393993;
};

object regulator_configuration {
	Control OUTPUT_VOLTAGE;
	raise_taps 16.0;
	PT_phase ABC;
	name REG27-CONFIG;
	band_center 123.9996;
	current_transducer_ratio 328;
	tap_pos_B 1;
	tap_pos_C 1;
	time_delay 30.0;
	connect_type WYE_WYE;
	regulation 0.1;
	CT_phase ABC;
	power_transducer_ratio 60.0;
	band_width 2.000004;
	tap_pos_A 1;
	control_level INDIVIDUAL;
	Type A;
	lower_taps 16.0;
};

object triplex_meter {
	phases CS;
	name nodeS1806-02-007T15668_C;
	longitude 251.4192007;
	nominal_voltage 120;
	latitude 954.458006402;
};

object node {
	phases A;
	name node929720F12241x1;
	longitude 70.7082785284;
	nominal_voltage 7200.0;
	latitude 812.467069266;
};

object node {
	phases C;
	name nodeF7427x1957895;
	longitude 383.450914744;
	nominal_voltage 7200.0;
	latitude 597.179102663;
};

object triplex_node {
	phases BS;
	name S1806-27-012_B;
	parent nodeS1806-27-012T12908_B;
	longitude 661.276078235;
	nominal_voltage 120;
	latitude 758.113377785;
};

object node {
	phases CN;
	name node839481839479;
	longitude 746.223444537;
	nominal_voltage 7200.0;
	latitude 646.666396466;
};

object underground_line {
	phases C;
	from node840223840222;
	name 979439;
	longitude 150.934672566;
	to nodeT29638979439;
	length 52;
	latitude 421.432334941;
	configuration 970069-LINECONFIG;
	groupid Distribution_Line;
};

object underground_line {
	phases C;
	from node927211F7878x1;
	name 927211;
	longitude 209.781179003;
	to node841505927211;
	length 595;
	latitude 1180.13212824;
	configuration 970069-LINECONFIG;
	groupid Distribution_Line;
};

object transformer {
	phases CS;
	from nodeT28873975926;
	name T28873_C;
	to nodeS1906-32-002T28873_C;
	configuration 1805-0538_C-CONFIG;
	groupid Distribution_Trans;
};

object triplex_meter {
	phases CS;
	name nodeS1906-32-0181906-0077_C;
	longitude 199.514799108;
	nominal_voltage 120;
	latitude 563.7954552;
};

object node {
	phases B;
	name node1806-05-064841139;
	longitude 316.999481845;
	nominal_voltage 7200.0;
	latitude 548.080898148;
};

object node {
	phases A;
	name node962381962382;
	longitude 651.28143808;
	nominal_voltage 7200.0;
	latitude 500.198597657;
};

object fuse {
	phases C;
	from nodeFFRN1-F185x1840429;
	name FFRN1-F185x1;
	current_limit 9999.0 A;
	longitude 207.086771095;
	to node840430FFRN1-F185x1;
	latitude 372.698901633;
};

object triplex_node {
	phases CS;
	name S1906-27-010_C;
	parent nodeS1906-27-0101906-0098_C;
	longitude 173.248340643;
	nominal_voltage 120;
	latitude 779.053819982;
};

object underground_line {
	phases A;
	from node982347982349;
	name 982347;
	longitude 85.1050261071;
	to node951896982347;
	length 640;
	latitude 673.975600859;
	configuration 982349-LINECONFIG;
	groupid Distribution_Line;
};

object overhead_line {
	phases BN;
	from node839806R2918x1;
	name 839806;
	longitude 321.415759895;
	to node985379839806;
	length 180;
	latitude 555.692457342;
	configuration 985054-LINECONFIG;
	groupid Distribution_Line;
};

object triplex_meter {
	phases CS;
	name nodeS1806-03-0091806-03-007_C;
	longitude 297.808333576;
	nominal_voltage 120;
	latitude 734.850583614;
};

object transformer {
	phases CS;
	from node839516906381;
	name 1806-33-030_C;
	to nodeS1806-33-0441806-33-030_C;
	configuration 1805-0538_C-CONFIG;
	groupid Distribution_Trans;
};

object node {
	phases B;
	name node978971R6914x1;
	longitude 504.970305712;
	nominal_voltage 7200.0;
	latitude 598.224780124;
};

object node {
	phases A;
	name node913047913046;
	longitude 141.655705688;
	nominal_voltage 7200.0;
	latitude 36.3068941758;
};

object node {
	phases ABCN;
	name node985279985278;
	longitude 355.932878951;
	nominal_voltage 7200.0;
	latitude 544.554776476;
};

object underground_line {
	phases B;
	from node841828841826;
	name 841828;
	longitude 586.456215871;
	to node841829841828;
	length 437;
	latitude 1103.94358205;
	configuration 841826-LINECONFIG;
	groupid Distribution_Line;
};

object transformer {
	phases BS;
	from node841303841299;
	name 1806-05-108_B;
	to nodeS1806-05-0531806-05-108_B;
	configuration 1806-10-002_B-CONFIG;
	groupid Distribution_Trans;
};

object overhead_line {
	phases BN;
	from node985055985054;
	name 985055;
	longitude 300.019929053;
	to node985056985055;
	length 50;
	latitude 550.901795485;
	configuration 985054-LINECONFIG;
	groupid Distribution_Line;
};

object triplex_node {
	phases AS;
	name S1806-20-001_A;
	parent nodeS1806-20-001T28806_A;
	longitude 576.480143321;
	nominal_voltage 120;
	latitude 508.319801504;
};

object regulator {
	phases ACB;
	from FRIENDSHIP;
	name REG27;
	longitude 794.827590509;
	to node958175REG27;
	latitude 533.055734649;
	configuration REG27-CONFIG;
};

object triplex_meter {
	phases AS;
	name nodeS1806-20-056T19018_A;
	longitude 524.6783739;
	nominal_voltage 120;
	latitude 465.616396301;
};

object node {
	phases A;
	name nodeT12242929720;
	longitude 70.7082785284;
	nominal_voltage 7200.0;
	latitude 812.467069266;
};

object triplex_node {
	phases CS;
	name S1806-32-140_C;
	parent nodeS1806-32-1401806-33-094_C;
	longitude 728.896312122;
	nominal_voltage 120;
	latitude 596.394099047;
};

object node {
	phases C;
	name node841528F7427x1;
	longitude 386.591733429;
	nominal_voltage 7200.0;
	latitude 595.963198638;
};

object node {
	phases CN;
	name node839483839481;
	longitude 746.366933716;
	nominal_voltage 7200.0;
	latitude 649.049568354;
};

object transformer {
	phases CS;
	from node985231985230;
	name 1906-29-031_C;
	to nodeS1906-29-0031906-29-031_C;
	configuration 1805-0538_C-CONFIG;
	groupid Distribution_Trans;
};

object underground_line {
	phases C;
	from node841505927211;
	name 841505;
	longitude 206.209892782;
	to nodeT7879841505;
	length 231;
	latitude 1178.77031573;
	configuration 970069-LINECONFIG;
	groupid Distribution_Line;
};

object underground_line {
	phases B;
	from node924936837409;
	name 924937;
	longitude 678.337119853;
	to nodeT14008924937;
	length 250;
	latitude 919.077534147;
	configuration 929369-LINECONFIG;
	groupid Distribution_Line;
};

object triplex_node {
	phases AS;
	name S1806-05-036_A;
	parent nodeS1806-05-0351806-05-134_A;
	longitude 282.284790762;
	nominal_voltage 120;
	latitude 571.666338719;
};

object triplex_meter {
	phases AS;
	name nodeS1906-22-0751906-22-049_A;
	longitude 23.2184728826;
	nominal_voltage 120;
	latitude 823.98466172;
};

object node {
	phases A;
	name node962401962381;
	longitude 652.74821635;
	nominal_voltage 7200.0;
	latitude 488.355692457;
};

object triplex_node {
	phases BS;
	name S1806-16-013_B;
	parent nodeS1806-16-013T12137_B;
	longitude 478.153551291;
	nominal_voltage 120;
	latitude 706.408952529;
};

object overhead_line {
	phases C;
	from node840430FFRN1-F185x1;
	name 840430;
	longitude 207.086771095;
	to node1906-31-013840430;
	length 233;
	latitude 378.365014388;
	configuration 840428-LINECONFIG;
	groupid Distribution_Line;
};

object underground_line {
	phases A;
	from node951896982347;
	name 951896;
	longitude 88.7081988122;
	to node951899951896;
	length 225;
	latitude 676.042637701;
	configuration 982349-LINECONFIG;
	groupid Distribution_Line;
};

object overhead_line {
	phases BN;
	from node985379839806;
	name 985379;
	longitude 320.60265455;
	to node839814985379;
	length 120;
	latitude 558.318810035;
	configuration 985054-LINECONFIG;
	groupid Distribution_Line;
};

object underground_line {
	phases A;
	from node841637917252;
	name 917255;
	longitude 507.377735262;
	to node917256917255;
	length 434;
	latitude 509.099015118;
	configuration 982349-LINECONFIG;
	groupid Distribution_Line;
};

object transformer {
	phases CS;
	from nodeT2557899222;
	name T2557_C;
	to nodeS1906-33-013T2557_C;
	configuration 1806-03-036_C-CONFIG;
	groupid Distribution_Trans;
};

object triplex_meter {
	phases CS;
	name nodeS1905-36-0031905-36-008_C;
	longitude 196.025191076;
	nominal_voltage 120;
	latitude 224.334018312;
};

object node {
	phases B;
	name node921593978971;
	longitude 505.592092152;
	nominal_voltage 7200.0;
	latitude 634.726218944;
};

object node {
	phases A;
	name node913048913047;
	longitude 139.997608514;
	nominal_voltage 7200.0;
	latitude 33.5103149191;
};

object node {
	phases ABCN;
	name node985184985279;
	longitude 353.477619674;
	nominal_voltage 7200.0;
	latitude 545.162728489;
};

object underground_line {
	phases B;
	from node841829841828;
	name 841829;
	longitude 586.121407788;
	to node948924841829;
	length 1895;
	latitude 1118.41283995;
	configuration 841826-LINECONFIG;
	groupid Distribution_Line;
};

object triplex_node {
	phases CS;
	name S1906-32-002_C;
	parent nodeS1906-32-002T28873_C;
	longitude 216.029631485;
	nominal_voltage 120;
	latitude 549.135118936;
};

object overhead_line {
	phases BN;
	from node985056985055;
	name 985056;
	longitude 300.370680378;
	to node985057985056;
	length 170;
	latitude 546.937948365;
	configuration 985054-LINECONFIG;
	groupid Distribution_Line;
};

object underground_line {
	phases ACB;
	from node958175REG27;
	name 958175;
	longitude 799.410100044;
	to nodeRFRN1-R0001x1958175;
	length 24;
	latitude 603.526121671;
	configuration 978204-LINECONFIG;
	groupid Distribution_Line;
};

object triplex_meter {
	phases CS;
	name nodeS1806-05-1941806-0243_C;
	longitude 330.13941922;
	nominal_voltage 120;
	latitude 567.770976473;
};

object transformer {
	phases AS;
	from node1905-0156841025;
	name 1905-0156_A;
	to nodeS1905-26-0371905-0156_A;
	configuration T19018_A-CONFIG;
	groupid Distribution_Trans;
};

object node {
	phases C;
	name node841529841528;
	longitude 384.391566025;
	nominal_voltage 7200.0;
	latitude 594.990475418;
};

object node {
	phases CN;
	name node839484839483;
	longitude 746.382876958;
	nominal_voltage 7200.0;
	latitude 649.244112998;
};

object transformer {
	phases CS;
	from nodeT28511965265;
	name T28511_C;
	to nodeS1806-17-047T28511_C;
	configuration T28511_C-CONFIG;
	groupid Distribution_Trans;
};

object transformer_configuration {
	powerC_rating 25;
	name T28511_C-CONFIG;
	primary_voltage 7200.0;
	secondary_voltage 120.0;
	connect_type SINGLE_PHASE_CENTER_TAPPED;
	impedance 0.00399920023992+0.0195960811756j;
	power_rating 25;
};

object triplex_node {
	phases BS;
	name S1806-14-009_B;
	parent nodeS1806-14-0091806-0074_B;
	longitude 424.188034399;
	nominal_voltage 120;
	latitude 955.013588448;
};

object triplex_node {
	phases BS;
	name S1806-15-003_B;
	parent nodeS1806-15-003T5057_B;
	longitude 500.638632138;
	nominal_voltage 120;
	latitude 835.045970115;
};

object triplex_meter {
	phases BS;
	name nodeS1806-27-0091806-27-012_B;
	longitude 594.091611274;
	nominal_voltage 120;
	latitude 786.63444897;
};

object node {
	phases ABCN;
	name node985186985296;
	longitude 306.381282634;
	nominal_voltage 7200.0;
	latitude 554.817006444;
};

object triplex_node {
	phases BS;
	name S1806-05-067_B;
	parent nodeS1806-05-0671806-05-014_B;
	longitude 315.678605055;
	nominal_voltage 120;
	latitude 580.717454821;
};

object node {
	phases A;
	name node839583962401;
	longitude 641.300968552;
	nominal_voltage 7200.0;
	latitude 488.01523933;
};

object underground_line {
	phases A;
	from node951899951896;
	name 951899;
	longitude 93.0607038941;
	to node951900951899;
	length 300;
	latitude 674.072873181;
	configuration 982349-LINECONFIG;
	groupid Distribution_Line;
};

object overhead_line {
	phases BN;
	from node839814985379;
	name 839814;
	longitude 319.454741122;
	to node974508839814;
	length 80;
	latitude 560.094029911;
	configuration 985054-LINECONFIG;
	groupid Distribution_Line;
};

object transformer {
	phases AS;
	from node917184840933;
	name 1905-24-058_A;
	to nodeS1905-24-0201905-24-058_A;
	configuration 1905-23-004_A-CONFIG;
	groupid Distribution_Trans;
};

object underground_line {
	phases A;
	from node917256917255;
	name 917256;
	longitude 506.181992108;
	to nodeF6857x1917256;
	length 148;
	latitude 509.877193694;
	configuration 982349-LINECONFIG;
	groupid Distribution_Line;
};

object triplex_meter {
	phases BS;
	name nodeS1806-16-010T6916_B;
	longitude 498.080753127;
	nominal_voltage 120;
	latitude 698.38166589;
};

object node {
	phases B;
	name node921816921593;
	longitude 505.512375942;
	nominal_voltage 7200.0;
	latitude 667.725854173;
};

object node {
	phases A;
	name node928552913048;
	longitude 143.058710989;
	nominal_voltage 7200.0;
	latitude 26.5553438982;
};

object node {
	phases ABCN;
	name node839771985184;
	longitude 353.700825063;
	nominal_voltage 7200.0;
	latitude 544.72500304;
};

object underground_line {
	phases B;
	from node948924841829;
	name 948924;
	longitude 573.287097931;
	to node1807-19-001948924;
	length 1750.41;
	latitude 1145.79499858;
	configuration 929369-LINECONFIG;
	groupid Distribution_Line;
};

object triplex_node {
	phases CS;
	name S1806-05-001_C;
	parent nodeS1806-05-0011806-05-359_C;
	longitude 342.044420479;
	nominal_voltage 120;
	latitude 542.571953666;
};

object overhead_line {
	phases BN;
	from node985057985056;
	name 985057;
	longitude 300.609829009;
	to node985058985057;
	length 140;
	latitude 543.460462854;
	configuration 985054-LINECONFIG;
	groupid Distribution_Line;
};

object triplex_node {
	phases CS;
	name S1906-20-093_C;
	parent nodeS1906-20-069T4270_C;
	longitude 47.6912815832;
	nominal_voltage 120;
	latitude 522.532409355;
};

object fuse {
	phases ACB;
	from nodeRFRN1-R0001x1958175;
	name RFRN1-R0001x1;
	current_limit 9999.0 A;
	longitude 799.410100044;
	to node958178RFRN1-R0001x1;
	latitude 603.526121671;
};

object transformer {
	phases CS;
	from node1806-0284928018;
	name 1806-0284_C;
	to nodeS1906-34-0141806-0284_C;
	configuration 1806-03-036_C-CONFIG;
	groupid Distribution_Trans;
};

object triplex_meter {
	phases AS;
	name nodeS1905-26-0371905-0156_A;
	longitude 88.3122789113;
	nominal_voltage 120;
	latitude 135.558836059;
};

object node {
	phases C;
	name node1806-0039841529;
	longitude 384.391566025;
	nominal_voltage 7200.0;
	latitude 594.990475418;
};

object node {
	phases CN;
	name node839486839484;
	longitude 746.94089043;
	nominal_voltage 7200.0;
	latitude 654.594090706;
};

object triplex_node {
	phases CS;
	name S1806-05-003_C;
	parent nodeS1806-05-003T28501_C;
	longitude 323.238116094;
	nominal_voltage 120;
	latitude 545.871011571;
};

object underground_line {
	phases B;
	from node837409928735;
	name 928736;
	longitude 684.060743752;
	to node928741928736;
	length 350;
	latitude 909.690755076;
	configuration 929369-LINECONFIG;
	groupid Distribution_Line;
};

object triplex_meter {
	phases AS;
	name nodeS1905-24-0751905-24-011_A;
	longitude 78.4299642482;
	nominal_voltage 120;
	latitude 220.685592768;
};

object triplex_node {
	phases CS;
	name S1906-30-054_C;
	parent nodeS1906-30-0241906-0174_C;
	longitude 121.274997028;
	nominal_voltage 120;
	latitude 422.321744795;
};

object node {
	phases ABCN;
	name node985187985186;
	longitude 302.220096457;
	nominal_voltage 7200.0;
	latitude 555.546548859;
};

object node {
	phases A;
	name node1806-0229839583;
	longitude 641.300968552;
	nominal_voltage 7200.0;
	latitude 488.01523933;
};

object underground_line {
	phases A;
	from node951900951899;
	name 951900;
	longitude 96.0102036749;
	to node840525951900;
	length 260;
	latitude 674.145827423;
	configuration 982349-LINECONFIG;
	groupid Distribution_Line;
};

object transformer {
	phases CS;
	from node841422897778;
	name 1806-03-017_C;
	to nodeS1806-03-0181806-03-017_C;
	configuration 1806-03-036_C-CONFIG;
	groupid Distribution_Trans;
};

object overhead_line {
	phases BN;
	from node974508839814;
	name 974508;
	longitude 318.641635777;
	to node839816974508;
	length 92;
	latitude 561.942204029;
	configuration 985054-LINECONFIG;
	groupid Distribution_Line;
};

object fuse {
	phases A;
	from nodeF6857x1917256;
	name F6857x1;
	current_limit 9999.0 A;
	longitude 506.181992108;
	to node841596F6857x1;
	latitude 509.877193694;
};

object triplex_node {
	phases AS;
	name S1905-26-038_A;
	parent nodeS1905-26-038T15477_A;
	longitude 107.068898746;
	nominal_voltage 120;
	latitude 88.8028282852;
};

object triplex_meter {
	phases BS;
	name nodeS1806-29-0101806-29-099_B;
	longitude 588.111237416;
	nominal_voltage 120;
	latitude 596.121044208;
};

object node {
	phases B;
	name node839719921816;
	longitude 505.257284069;
	nominal_voltage 7200.0;
	latitude 693.357111012;
};

object node {
	phases A;
	name nodeT14038928552;
	longitude 143.058710989;
	nominal_voltage 7200.0;
	latitude 26.5553438982;
};

object node {
	phases A;
	name nodeF28127x1839771;
	longitude 353.700825063;
	nominal_voltage 7200.0;
	latitude 544.72500304;
};

object triplex_node {
	phases CS;
	name S1806-03-005_C;
	parent nodeS1806-03-0051806-03-015_C;
	longitude 293.711421076;
	nominal_voltage 120;
	latitude 759.961756021;
};

object underground_line {
	phases A;
	from node840736840735;
	name 959461;
	longitude 36.5100243134;
	to node959481959461;
	length 550;
	latitude 722.465853362;
	configuration 982349-LINECONFIG;
	groupid Distribution_Line;
};

object overhead_line {
	phases B;
	from node985058985057;
	name 985058;
	longitude 300.817091155;
	to node1806-05-353985058;
	length 170;
	latitude 539.423661492;
	configuration 985054-LINECONFIG;
	groupid Distribution_Line;
};

object transformer {
	phases AS;
	from node840950840948;
	name 1905-24-011_A;
	to nodeS1905-24-0751905-24-011_A;
	configuration 1905-23-004_A-CONFIG;
	groupid Distribution_Trans;
};

object underground_line {
	phases ACB;
	from node958178RFRN1-R0001x1;
	name 958178;
	longitude 790.577543944;
	to node958179958178;
	length 780;
	latitude 608.195193126;
	configuration 978204-LINECONFIG;
	groupid Distribution_Line;
};

object triplex_meter {
	phases BS;
	name nodeS1806-26-004T15660_B;
	longitude 674.389585944;
	nominal_voltage 120;
	latitude 878.473608505;
};

object node {
	phases CN;
	name node839488839486;
	longitude 748.407668699;
	nominal_voltage 7200.0;
	latitude 659.554979127;
};

object triplex_node {
	phases CS;
	name S1906-27-016_C;
	parent nodeS1906-27-016T9528_C;
	longitude 173.253834945;
	nominal_voltage 120;
	latitude 826.851088729;
};

object underground_line {
	phases B;
	from node928741928736;
	name 928741;
	longitude 692.861413368;
	to node928742928741;
	length 770;
	latitude 918.080492846;
	configuration 929369-LINECONFIG;
	groupid Distribution_Line;
};

object triplex_meter {
	phases BS;
	name nodeS1906-33-007T10526_B;
	longitude 251.569277943;
	nominal_voltage 120;
	latitude 671.733350063;
};

object transformer {
	phases CS;
	from node840252840250;
	name 1906-30-025_C;
	to nodeS1906-30-0021906-30-025_C;
	configuration 1806-03-036_C-CONFIG;
	groupid Distribution_Trans;
};

object node {
	phases ABCN;
	name node985188985187;
	longitude 299.366256128;
	nominal_voltage 7200.0;
	latitude 555.887001986;
};

object overhead_line {
	phases CN;
	from node840429840428;
	name 840432;
	longitude 214.197457053;
	to node840433840432;
	length 446;
	latitude 371.872086897;
	configuration 840428-LINECONFIG;
	groupid Distribution_Line;
};

object transformer {
	phases CS;
	from node1806-02-004841461;
	name 1806-02-004_C;
	to nodeS1806-02-0031806-02-004_C;
	configuration 1806-09-007_C-CONFIG;
	groupid Distribution_Trans;
};

object underground_line {
	phases A;
	from node840525951900;
	name 840525;
	longitude 96.0899198852;
	to nodeT16166840525;
	length 274;
	latitude 667.482673368;
	configuration 840498-LINECONFIG;
	groupid Distribution_Line;
};

object overhead_line {
	phases BN;
	from node839816974508;
	name 839816;
	longitude 317.461835864;
	to node922079839816;
	length 133;
	latitude 564.690147124;
	configuration 985054-LINECONFIG;
	groupid Distribution_Line;
};

object triplex_node {
	phases CS;
	name S1906-32-044_C;
	parent nodeS1906-32-0251906-0069_C;
	longitude 201.773094455;
	nominal_voltage 120;
	latitude 576.918745906;
};

object overhead_line {
	phases A;
	from node841596F6857x1;
	name 841596;
	longitude 503.439754474;
	to node841597841596;
	length 211;
	latitude 510.023102176;
	configuration 841596-LINECONFIG;
	groupid Distribution_Line;
};

object triplex_meter {
	phases BS;
	name nodeS1806-27-012T12908_B;
	longitude 659.718685293;
	nominal_voltage 120;
	latitude 756.267324547;
};

object node {
	phases B;
	name node839720839719;
	longitude 498.577065646;
	nominal_voltage 7200.0;
	latitude 696.299598752;
};

object triplex_node {
	phases AS;
	name S1905-24-014_A;
	parent nodeS1905-24-0141905-24-018_A;
	longitude 69.3165842225;
	nominal_voltage 120;
	latitude 203.695357895;
};

object node {
	phases AN;
	name node839772F28127x1;
	longitude 355.008170912;
	nominal_voltage 7200.0;
	latitude 538.84002756;
};

object overhead_line {
	phases B;
	from node841826904509;
	name 904510;
	longitude 586.153294272;
	to node1806-24-016904510;
	length 349;
	latitude 1095.82134317;
	configuration 904509-LINECONFIG;
	groupid Distribution_Line;
};

object underground_line {
	phases A;
	from node959481959461;
	name 959481;
	longitude 36.5897405237;
	to nodeT16332959481;
	length 60;
	latitude 725.165160297;
	configuration 982349-LINECONFIG;
	groupid Distribution_Line;
};

object transformer {
	phases BS;
	from nodeT4041911831;
	name T4041_B;
	to nodeS1806-16-012T4041_B;
	configuration 1806-33-057_B-CONFIG;
	groupid Distribution_Trans;
};

object underground_line {
	phases ACB;
	from node958179958178;
	name 958179;
	longitude 780.134720395;
	to node978195958179;
	length 860;
	latitude 602.650670774;
	configuration 978204-LINECONFIG;
	groupid Distribution_Line;
};

object triplex_node {
	phases AS;
	name S1806-17-017_A;
	parent nodeS1806-17-017T10632_A;
	longitude 474.534787159;
	nominal_voltage 120;
	latitude 485.052618841;
};

object triplex_meter {
	phases BS;
	name nodeS1806-04-0311806-0121_B;
	longitude 303.171191075;
	nominal_voltage 120;
	latitude 635.104955628;
};

object node {
	phases A;
	name nodeFFRN1-F128x1840704;
	longitude 72.222886524;
	nominal_voltage 7200.0;
	latitude 795.614639484;
};

object node {
	phases C;
	name node1806-0220841531;
	longitude 384.104587668;
	nominal_voltage 7200.0;
	latitude 608.803145138;
};

object node {
	phases CN;
	name node839490839488;
	longitude 748.009087648;
	nominal_voltage 7200.0;
	latitude 663.859279374;
};

object triplex_node {
	phases CS;
	name S1806-21-026_C;
	parent nodeS1806-21-026T28682_C;
	longitude 518.605779548;
	nominal_voltage 120;
	latitude 623.389620231;
};

object underground_line {
	phases B;
	from node928742928741;
	name 928742;
	longitude 699.717007453;
	to node928748928742;
	length 578;
	latitude 924.865237304;
	configuration 929369-LINECONFIG;
	groupid Distribution_Line;
};

object transformer {
	phases CS;
	from node840137840132;
	name T25156_C;
	to nodeS1906-32-021T25156_C;
	configuration T7879_C-CONFIG;
	groupid Distribution_Trans;
};

object triplex_meter {
	phases AS;
	name nodeS1906-22-1631906-22-057_A;
	longitude 65.915734791;
	nominal_voltage 120;
	latitude 734.376236129;
};

object node {
	phases ABCN;
	name node840024985188;
	longitude 299.637291243;
	nominal_voltage 7200.0;
	latitude 554.938596847;
};

object node {
	phases A;
	name nodeT16942962383;
	longitude 640.232771334;
	nominal_voltage 7200.0;
	latitude 506.351072022;
};

object overhead_line {
	phases CN;
	from node840433840432;
	name 840433;
	longitude 220.415321456;
	to node840434840433;
	length 477;
	latitude 378.559559032;
	configuration 840428-LINECONFIG;
	groupid Distribution_Line;
};

object triplex_node {
	phases BS;
	name S1806-04-044_B;
	parent nodeS1806-04-028T10519_B;
	longitude 308.117002109;
	nominal_voltage 120;
	latitude 633.16482903;
};

object overhead_line {
	phases BN;
	from node922079839816;
	name 922079;
	longitude 316.505241341;
	to node839818922079;
	length 116;
	latitude 567.121955174;
	configuration 985054-LINECONFIG;
	groupid Distribution_Line;
};

object underground_line {
	phases A;
	from node841597841596;
	name 841597;
	longitude 504.252859819;
	to nodeT6858841597;
	length 287;
	latitude 517.245572083;
	configuration 982349-LINECONFIG;
	groupid Distribution_Line;
};

object triplex_meter {
	phases CS;
	name nodeS1806-07-0071806-0203_C;
	longitude 342.361478494;
	nominal_voltage 120;
	latitude 396.068570574;
};

object node {
	phases B;
	name nodeT6916839720;
	longitude 498.577065646;
	nominal_voltage 7200.0;
	latitude 696.299598752;
};

object transformer {
	phases BS;
	from node841282841281;
	name 1806-05-096_B;
	to nodeS1806-08-0241806-05-096_B;
	configuration 1806-33-057_B-CONFIG;
	groupid Distribution_Trans;
};

object node {
	phases A;
	name nodeT4239917949;
	longitude 146.103870222;
	nominal_voltage 7200.0;
	latitude 40.5868763426;
};

object node {
	phases AN;