0,   100.00, 33, 0, 1, 60.00     / PSS(R)E-33.7    THU, MAR 15 2018  17:28
 0,    100.00, 30, 0, 0, 60.00       / SEPTEMBER 06, 2016 22
 0,    100.00, 30, 0, 0, 60.00       / SEPTEMBER 06, 2016 22
     1,'A1          ', 345.0000,1,   1,   1,   1,0.97596, -11.1124,1.10000,0.90000,1.10000,0.90000
     2,'A2          ', 345.0000,1,   1,   1,   1,1.04276, -10.2178,1.10000,0.90000,1.10000,0.90000
     3,'A3          ', 500.0000,2,   1,   1,   1,0.99776,  -8.8882,1.10000,0.90000,1.10000,0.90000
     4,'A4          ', 500.0000,2,   1,   1,   1,0.99220,  -8.3788,1.10000,0.90000,1.10000,0.90000
     5,'A5          ', 500.0000,1,   1,   1,   1,0.99230,  -8.3827,1.10000,0.90000,1.10000,0.90000
     6,'A6          ', 500.0000,1,   1,   1,   1,0.95886, -14.9029,1.10000,0.90000,1.10000,0.90000
     7,'A7          ', 345.0000,1,   1,   1,   1,0.96566, -13.5327,1.10000,0.90000,1.10000,0.90000
     8,'A8          ', 345.0000,1,   1,   1,   1,0.96568, -13.5347,1.10000,0.90000,1.10000,0.90000
     9,'A9          ', 345.0000,2,   1,   1,   1,0.98364,  -9.9899,1.10000,0.90000,1.10000,0.90000
    10,'A10         ', 345.0000,2,   1,   1,   1,0.98360,  -9.9863,1.10000,0.90000,1.10000,0.90000
    11,'A11         ', 345.0000,1,   1,   1,   1,0.99026,  -9.4696,1.10000,0.90000,1.10000,0.90000
    12,'A12         ', 500.0000,1,   1,   1,   1,1.00110,  -8.3577,1.10000,0.90000,1.10000,0.90000
    13,'A13         ', 500.0000,1,   1,   1,   1,1.01025,  -9.0547,1.10000,0.90000,1.10000,0.90000
    14,'A14         ', 500.0000,1,   1,   1,   1,1.01022,  -9.0539,1.10000,0.90000,1.10000,0.90000
    15,'A15         ', 500.0000,2,   1,   1,   1,1.01125,  -8.1668,1.10000,0.90000,1.10000,0.90000
    16,'A16         ', 500.0000,2,   1,   1,   1,1.01125,  -8.1682,1.10000,0.90000,1.10000,0.90000
    17,'A17         ', 345.0000,1,   1,   1,   1,1.00479, -11.8800,1.10000,0.90000,1.10000,0.90000
    18,'A18         ', 138.0000,1,   1,   1,   1,1.02380, -12.3034,1.10000,0.90000,1.10000,0.90000
    19,'A19         ', 138.0000,2,   1,   1,   1,1.01909, -14.1294,1.10000,0.90000,1.10000,0.90000
    20,'A20         ', 138.0000,2,   1,   1,   1,1.01889, -14.1351,1.10000,0.90000,1.10000,0.90000
    21,'A21         ', 138.0000,1,   1,   1,   1,1.02291, -14.6289,1.10000,0.90000,1.10000,0.90000
    22,'A22         ', 138.0000,2,   1,   1,   1,1.02182, -13.2894,1.10000,0.90000,1.10000,0.90000
    23,'A23         ', 138.0000,1,   1,   1,   1,1.02682, -14.4667,1.10000,0.90000,1.10000,0.90000
    24,'A24         ',  32.0000,1,   1,   1,   1,0.97597, -15.0412,1.10000,0.90000,1.10000,0.90000
    25,'A25         ', 138.0000,1,   1,   1,   1,1.02206, -14.6283,1.10000,0.90000,1.10000,0.90000
    26,'A26         ', 138.0000,1,   1,   1,   1,1.02488, -15.3981,1.10000,0.90000,1.10000,0.90000
    27,'A27         ', 138.0000,1,   1,   1,   1,1.01379, -14.6513,1.10000,0.90000,1.10000,0.90000
    28,'A28         ', 138.0000,1,   1,   1,   1,1.01378, -14.6442,1.10000,0.90000,1.10000,0.90000
    29,'A29         ', 138.0000,2,   1,   1,   1,1.02182, -12.4357,1.10000,0.90000,1.10000,0.90000
    30,'A30         ', 138.0000,2,   1,   1,   1,1.02455, -12.3726,1.10000,0.90000,1.10000,0.90000
    31,'A31         ', 138.0000,1,   1,   1,   1,1.01275, -14.8169,1.10000,0.90000,1.10000,0.90000
    32,'A32         ', 138.0000,1,   1,   1,   1,1.01344, -14.6782,1.10000,0.90000,1.10000,0.90000
    33,'A33         ',  16.0000,1,   1,   1,   1,0.99899,  -9.4655,1.10000,0.90000,1.10000,0.90000
    34,'A34         ', 138.0000,1,   1,   1,   1,1.02113, -14.6737,1.10000,0.90000,1.10000,0.90000
    35,'A35         ', 138.0000,1,   1,   1,   1,1.02384, -15.5062,1.10000,0.90000,1.10000,0.90000
    36,'A36         ', 138.0000,1,   1,   1,   1,1.01453, -14.5885,1.10000,0.90000,1.10000,0.90000
    37,'A37         ', 138.0000,2,   1,   1,   1,1.02182, -13.0477,1.10000,0.90000,1.10000,0.90000
    38,'A38         ', 138.0000,1,   1,   1,   1,1.02128, -13.0378,1.10000,0.90000,1.10000,0.90000
    39,'A39         ', 138.0000,1,   1,   1,   1,1.02599, -14.5259,1.10000,0.90000,1.10000,0.90000
    40,'A40         ', 138.0000,1,   1,   1,   1,1.02590, -14.5351,1.10000,0.90000,1.10000,0.90000
    41,'A41         ', 138.0000,1,   1,   1,   1,1.02583, -14.5393,1.10000,0.90000,1.10000,0.90000
    42,'A42         ', 138.0000,1,   1,   1,   1,1.01561, -14.4787,1.10000,0.90000,1.10000,0.90000
    43,'A43         ', 138.0000,1,   1,   1,   1,1.02208, -14.9684,1.10000,0.90000,1.10000,0.90000
    44,'A44         ', 138.0000,2,   1,   1,   1,1.02455, -11.3009,1.10000,0.90000,1.10000,0.90000
    45,'A45         ', 138.0000,2,   1,   1,   1,1.02182, -14.4590,1.10000,0.90000,1.10000,0.90000
    46,'A46         ', 138.0000,1,   1,   1,   1,1.01304, -14.8727,1.10000,0.90000,1.10000,0.90000
    47,'A47         ', 138.0000,1,   1,   1,   1,1.01707, -13.5782,1.10000,0.90000,1.10000,0.90000
    48,'A48         ', 138.0000,1,   1,   1,   1,1.01789, -13.9746,1.10000,0.90000,1.10000,0.90000
    49,'A49         ', 138.0000,2,   1,   1,   1,1.02182, -14.6651,1.10000,0.90000,1.10000,0.90000
    50,'A50         ', 138.0000,1,   1,   1,   1,1.03986, -12.0953,1.10000,0.90000,1.10000,0.90000
    51,'A51         ', 138.0000,1,   1,   1,   1,1.02309, -13.3773,1.10000,0.90000,1.10000,0.90000
    52,'A52         ', 138.0000,1,   1,   1,   1,1.04610, -11.4646,1.10000,0.90000,1.10000,0.90000
    53,'A53         ', 138.0000,1,   1,   1,   1,1.04599, -11.4942,1.10000,0.90000,1.10000,0.90000
    54,'A54         ', 138.0000,2,   1,   1,   1,1.02455, -13.3172,1.10000,0.90000,1.10000,0.90000
    55,'A55         ', 138.0000,1,   1,   1,   1,1.01350, -14.6697,1.10000,0.90000,1.10000,0.90000
    56,'A56         ', 138.0000,1,   1,   1,   1,1.01403, -14.6303,1.10000,0.90000,1.10000,0.90000
    57,'A57         ', 138.0000,1,   1,   1,   1,1.04086, -11.9182,1.10000,0.90000,1.10000,0.90000
    58,'A58         ', 138.0000,2,   1,   1,   1,1.02182, -12.7887,1.10000,0.90000,1.10000,0.90000
    59,'A59         ', 138.0000,1,   1,   1,   1,1.01947, -12.8955,1.10000,0.90000,1.10000,0.90000
    60,'A60         ', 138.0000,2,   1,   1,   1,1.02182, -12.7179,1.10000,0.90000,1.10000,0.90000
    61,'A61         ', 138.0000,1,   1,   1,   1,1.01463, -14.8523,1.10000,0.90000,1.10000,0.90000
    62,'A62         ', 138.0000,1,   1,   1,   1,1.02121, -14.6640,1.10000,0.90000,1.10000,0.90000
    63,'A63         ', 138.0000,1,   1,   1,   1,1.02910, -11.3121,1.10000,0.90000,1.10000,0.90000
    64,'A64         ', 138.0000,1,   1,   1,   1,1.02880, -11.2973,1.10000,0.90000,1.10000,0.90000
    65,'A65         ', 500.0000,1,   1,   1,   1,0.99756,  -8.3279,1.10000,0.90000,1.10000,0.90000
    66,'B66         ', 345.0000,1,   2,   2,   1,0.98571,  -9.8053,1.10000,0.90000,1.10000,0.90000
    67,'B67         ', 345.0000,1,   2,   2,   1,1.04277, -10.1536,1.10000,0.90000,1.10000,0.90000
    68,'B68         ', 500.0000,2,   2,   2,   1,0.99784,  -8.8993,1.10000,0.90000,1.10000,0.90000
    69,'B69         ', 500.0000,2,   2,   2,   1,0.99207,  -8.3281,1.10000,0.90000,1.10000,0.90000
    70,'B70         ', 500.0000,1,   2,   2,   1,0.99217,  -8.3325,1.10000,0.90000,1.10000,0.90000
    71,'B71         ', 500.0000,1,   2,   2,   1,0.95666, -14.0202,1.10000,0.90000,1.10000,0.90000
    72,'B72         ', 345.0000,1,   2,   2,   1,0.96561, -13.0489,1.10000,0.90000,1.10000,0.90000
    73,'B73         ', 345.0000,1,   2,   2,   1,0.96562, -13.0511,1.10000,0.90000,1.10000,0.90000
    74,'B74         ', 345.0000,2,   2,   2,   1,0.98371,  -9.3986,1.10000,0.90000,1.10000,0.90000
    75,'B75         ', 345.0000,2,   2,   2,   1,0.98378,  -9.3999,1.10000,0.90000,1.10000,0.90000
    76,'B76         ', 345.0000,1,   2,   2,   1,0.98466, -10.1490,1.10000,0.90000,1.10000,0.90000
    77,'B77         ', 500.0000,1,   2,   2,   1,1.00113,  -8.3821,1.10000,0.90000,1.10000,0.90000
    78,'B78         ', 500.0000,1,   2,   2,   1,1.01030,  -9.0466,1.10000,0.90000,1.10000,0.90000
    79,'B79         ', 500.0000,1,   2,   2,   1,1.01026,  -9.0460,1.10000,0.90000,1.10000,0.90000
    80,'B80         ', 500.0000,2,   2,   2,   1,1.01125,  -8.1374,1.10000,0.90000,1.10000,0.90000
    81,'B81         ', 500.0000,2,   2,   2,   1,1.01125,  -8.1387,1.10000,0.90000,1.10000,0.90000
    82,'B82         ', 345.0000,1,   2,   2,   1,1.00481, -11.7083,1.10000,0.90000,1.10000,0.90000
    83,'B83         ', 138.0000,1,   2,   2,   1,1.02372, -12.6151,1.10000,0.90000,1.10000,0.90000
    84,'B84         ', 138.0000,2,   2,   2,   1,1.01909, -13.8526,1.10000,0.90000,1.10000,0.90000
    85,'B85         ', 138.0000,2,   2,   2,   1,1.01890, -13.8599,1.10000,0.90000,1.10000,0.90000
    86,'B86         ', 138.0000,1,   2,   2,   1,1.02196, -13.9801,1.10000,0.90000,1.10000,0.90000
    87,'B87         ', 138.0000,2,   2,   2,   1,1.02182, -14.4936,1.10000,0.90000,1.10000,0.90000
    88,'B88         ', 138.0000,1,   2,   2,   1,1.02481, -13.6343,1.10000,0.90000,1.10000,0.90000
    89,'B89         ',  32.0000,1,   2,   2,   1,0.97373, -14.1586,1.10000,0.90000,1.10000,0.90000
    90,'B90         ', 138.0000,1,   2,   2,   1,1.02176, -14.1293,1.10000,0.90000,1.10000,0.90000
    91,'B91         ', 138.0000,1,   2,   2,   1,1.02439, -14.7902,1.10000,0.90000,1.10000,0.90000
    92,'B92         ', 138.0000,1,   2,   2,   1,1.01382, -14.3289,1.10000,0.90000,1.10000,0.90000
    93,'B93         ', 138.0000,1,   2,   2,   1,1.01382, -14.3222,1.10000,0.90000,1.10000,0.90000
    94,'B94         ', 138.0000,2,   2,   2,   1,1.02182, -12.3772,1.10000,0.90000,1.10000,0.90000
    95,'B95         ', 138.0000,2,   2,   2,   1,1.02455, -12.3196,1.10000,0.90000,1.10000,0.90000
    96,'B96         ', 138.0000,1,   2,   2,   1,1.01278, -14.4730,1.10000,0.90000,1.10000,0.90000
    97,'B97         ', 138.0000,1,   2,   2,   1,1.01348, -14.3559,1.10000,0.90000,1.10000,0.90000
    98,'B98         ',  16.0000,1,   2,   2,   1,0.99334, -10.1449,1.10000,0.90000,1.10000,0.90000
    99,'B99         ', 138.0000,1,   2,   2,   1,1.02086, -14.1864,1.10000,0.90000,1.10000,0.90000
   100,'B100        ', 138.0000,1,   2,   2,   1,1.02335, -14.8984,1.10000,0.90000,1.10000,0.90000
   101,'B101        ', 138.0000,1,   2,   2,   1,1.01457, -14.2776,1.10000,0.90000,1.10000,0.90000
   102,'B102        ', 138.0000,2,   2,   2,   1,1.02182, -13.6543,1.10000,0.90000,1.10000,0.90000
   103,'B103        ', 138.0000,1,   2,   2,   1,1.02115, -13.6055,1.10000,0.90000,1.10000,0.90000
   104,'B104        ', 138.0000,1,   2,   2,   1,1.02432, -13.7230,1.10000,0.90000,1.10000,0.90000
   105,'B105        ', 138.0000,1,   2,   2,   1,1.02431, -13.7367,1.10000,0.90000,1.10000,0.90000
   106,'B106        ', 138.0000,1,   2,   2,   1,1.02420, -13.7387,1.10000,0.90000,1.10000,0.90000
   107,'B107        ', 138.0000,1,   2,   2,   1,1.01564, -14.1781,1.10000,0.90000,1.10000,0.90000
   108,'B108        ', 138.0000,1,   2,   2,   1,1.02593, -13.7331,1.10000,0.90000,1.10000,0.90000
   109,'B109        ', 138.0000,2,   2,   2,   1,1.02455, -11.3266,1.10000,0.90000,1.10000,0.90000
   110,'B110        ', 138.0000,2,   2,   2,   1,1.02182, -13.6603,1.10000,0.90000,1.10000,0.90000
   111,'B111        ', 138.0000,1,   2,   2,   1,1.01305, -14.5126,1.10000,0.90000,1.10000,0.90000
   112,'B112        ', 138.0000,1,   2,   2,   1,1.01721, -13.4048,1.10000,0.90000,1.10000,0.90000
   113,'B113        ', 138.0000,1,   2,   2,   1,1.01795, -13.7341,1.10000,0.90000,1.10000,0.90000
   114,'B114        ', 138.0000,2,   2,   2,   1,1.02182, -14.1710,1.10000,0.90000,1.10000,0.90000
   115,'B115        ', 138.0000,1,   2,   2,   1,1.03991, -12.0869,1.10000,0.90000,1.10000,0.90000
   116,'B116        ', 138.0000,1,   2,   2,   1,1.02268, -15.2023,1.10000,0.90000,1.10000,0.90000
   117,'B117        ', 138.0000,1,   2,   2,   1,1.04614, -11.4564,1.10000,0.90000,1.10000,0.90000
   118,'B118        ', 138.0000,1,   2,   2,   1,1.04603, -11.4859,1.10000,0.90000,1.10000,0.90000
   119,'B119        ', 138.0000,2,   2,   2,   1,1.02455, -15.4112,1.10000,0.90000,1.10000,0.90000
   120,'B120        ', 138.0000,1,   2,   2,   1,1.01354, -14.3476,1.10000,0.90000,1.10000,0.90000
   121,'B121        ', 138.0000,1,   2,   2,   1,1.01407, -14.3117,1.10000,0.90000,1.10000,0.90000
   122,'B122        ', 138.0000,1,   2,   2,   1,1.04091, -11.9099,1.10000,0.90000,1.10000,0.90000
   123,'B123        ', 138.0000,2,   2,   2,   1,1.02182, -12.7145,1.10000,0.90000,1.10000,0.90000
   124,'B124        ', 138.0000,1,   2,   2,   1,1.01959, -12.7955,1.10000,0.90000,1.10000,0.90000
   125,'B125        ', 138.0000,2,   2,   2,   1,1.02182, -13.0921,1.10000,0.90000,1.10000,0.90000
   126,'B126        ', 138.0000,1,   2,   2,   1,1.01455, -14.4678,1.10000,0.90000,1.10000,0.90000
   127,'B127        ', 138.0000,1,   2,   2,   1,1.02094, -14.1767,1.10000,0.90000,1.10000,0.90000
   128,'B128        ', 138.0000,1,   2,   2,   1,1.02913, -11.3240,1.10000,0.90000,1.10000,0.90000
   129,'B129        ', 138.0000,1,   2,   2,   1,1.02883, -11.3099,1.10000,0.90000,1.10000,0.90000
   130,'B130        ', 500.0000,1,   2,   2,   1,0.99747,  -8.2826,1.10000,0.90000,1.10000,0.90000
   131,'C131        ', 345.0000,1,   3,   3,   1,0.98958,  -9.5217,1.10000,0.90000,1.10000,0.90000
   132,'C132        ', 345.0000,2,   3,   3,   1,0.98948,  -9.5218,1.10000,0.90000,1.10000,0.90000
   133,'C133        ', 500.0000,2,   3,   3,   1,0.95472,  -7.5076,1.10000,0.90000,1.10000,0.90000
   134,'C134        ', 500.0000,1,   3,   3,   1,0.96689, -12.6834,1.10000,0.90000,1.10000,0.90000
   135,'C135        ', 500.0000,2,   3,   3,   1,0.97498, -10.4592,1.10000,0.90000,1.10000,0.90000
   136,'C136        ', 138.0000,1,   3,   3,   1,0.99714, -15.5959,1.10000,0.90000,1.10000,0.90000
   137,'C137        ', 138.0000,1,   3,   3,   1,1.00010, -15.0769,1.10000,0.90000,1.10000,0.90000
   138,'C138        ', 138.0000,2,   3,   3,   1,1.00013, -15.0687,1.10000,0.90000,1.10000,0.90000
   139,'C139        ', 138.0000,1,   3,   3,   1,0.99392, -15.8462,1.10000,0.90000,1.10000,0.90000
   140,'C140        ', 138.0000,1,   3,   3,   1,0.99713, -15.6527,1.10000,0.90000,1.10000,0.90000
   141,'C141        ', 138.0000,1,   3,   3,   1,1.02436, -12.6459,1.10000,0.90000,1.10000,0.90000
   142,'C142        ', 138.0000,2,   3,   3,   1,1.00537, -15.1617,1.10000,0.90000,1.10000,0.90000
   143,'C143        ', 138.0000,1,   3,   3,   1,1.02639, -12.2624,1.10000,0.90000,1.10000,0.90000
   144,'C144        ', 138.0000,2,   3,   3,   1,1.02828, -12.8110,1.10000,0.90000,1.10000,0.90000
   145,'C145        ', 138.0000,1,   3,   3,   1,1.02782, -12.8399,1.10000,0.90000,1.10000,0.90000
   146,'C146        ', 138.0000,1,   3,   3,   1,1.03386, -12.2276,1.10000,0.90000,1.10000,0.90000
   147,'C147        ', 138.0000,1,   3,   3,   1,1.03388, -12.2018,1.10000,0.90000,1.10000,0.90000
   148,'C148        ', 138.0000,1,   3,   3,   1,1.03385, -12.1942,1.10000,0.90000,1.10000,0.90000
   149,'C149        ',  16.0000,1,   3,   3,   1,0.98406, -12.6760,1.10000,0.90000,1.10000,0.90000
   150,'C150        ', 138.0000,1,   3,   3,   1,1.00285, -15.1585,1.10000,0.90000,1.10000,0.90000
   151,'C151        ', 138.0000,1,   3,   3,   1,1.00985, -14.3411,1.10000,0.90000,1.10000,0.90000
   152,'C152        ', 138.0000,2,   3,   3,   1,1.01364, -15.2948,1.10000,0.90000,1.10000,0.90000
   153,'C153        ', 138.0000,2,   3,   3,   1,1.00872, -16.0536,1.10000,0.90000,1.10000,0.90000
   154,'C154        ', 138.0000,1,   3,   3,   1,1.00851, -16.0566,1.10000,0.90000,1.10000,0.90000
   155,'C155        ', 138.0000,1,   3,   3,   1,1.00877, -16.0285,1.10000,0.90000,1.10000,0.90000
   156,'C156        ', 138.0000,1,   3,   3,   1,1.00775, -16.1101,1.10000,0.90000,1.10000,0.90000
   157,'C157        ', 138.0000,2,   3,   3,   1,1.02286, -13.2840,1.10000,0.90000,1.10000,0.90000
   158,'C158        ', 138.0000,1,   3,   3,   1,1.00259, -14.9985,1.10000,0.90000,1.10000,0.90000
   159,'C159        ', 138.0000,2,   3,   3,   1,1.00504, -17.0055,1.10000,0.90000,1.10000,0.90000
   160,'C160        ', 138.0000,2,   3,   3,   1,1.01199, -13.2714,1.10000,0.90000,1.10000,0.90000
   161,'C161        ', 138.0000,1,   3,   3,   1,1.02112, -12.6273,1.10000,0.90000,1.10000,0.90000
   162,'C162        ', 138.0000,1,   3,   3,   1,1.00850, -16.1186,1.10000,0.90000,1.10000,0.90000
   163,'C163        ', 138.0000,1,   3,   3,   1,1.00603, -16.1044,1.10000,0.90000,1.10000,0.90000
   164,'C164        ', 138.0000,1,   3,   3,   1,1.02846, -12.7489,1.10000,0.90000,1.10000,0.90000
   165,'C165        ', 138.0000,1,   3,   3,   1,1.00794, -10.3752,1.10000,0.90000,1.10000,0.90000
   166,'C166        ', 138.0000,1,   3,   3,   1,0.99313, -15.7160,1.10000,0.90000,1.10000,0.90000
   167,'C167        ', 138.0000,2,   3,   3,   1,1.03351, -10.7328,1.10000,0.90000,1.10000,0.90000
   168,'C168        ', 138.0000,2,   3,   3,   1,1.00293, -13.0685,1.10000,0.90000,1.10000,0.90000
   169,'C169        ', 138.0000,1,   3,   3,   1,1.01354, -13.4679,1.10000,0.90000,1.10000,0.90000
   170,'C170        ', 138.0000,1,   3,   3,   1,1.00754, -14.7120,1.10000,0.90000,1.10000,0.90000
   171,'C171        ', 138.0000,1,   3,   3,   1,0.99709, -16.7041,1.10000,0.90000,1.10000,0.90000
   172,'C172        ', 138.0000,2,   3,   3,   1,1.00818, -16.0609,1.10000,0.90000,1.10000,0.90000
   173,'C173        ', 138.0000,1,   3,   3,   1,0.99283, -16.5671,1.10000,0.90000,1.10000,0.90000
   174,'C174        ', 138.0000,1,   3,   3,   1,1.03063, -12.5694,1.10000,0.90000,1.10000,0.90000
   175,'C175        ', 138.0000,1,   3,   3,   1,1.02762, -12.8480,1.10000,0.90000,1.10000,0.90000
   176,'C176        ', 138.0000,1,   3,   3,   1,1.00857, -15.5240,1.10000,0.90000,1.10000,0.90000
   177,'C177        ', 138.0000,1,   3,   3,   1,1.03028, -12.5638,1.10000,0.90000,1.10000,0.90000
   178,'C178        ', 138.0000,2,   3,   3,   1,1.01091, -16.0654,1.10000,0.90000,1.10000,0.90000
   179,'C179        ', 138.0000,1,   3,   3,   1,1.02027, -14.1489,1.10000,0.90000,1.10000,0.90000
   180,'C180        ', 138.0000,2,   3,   3,   1,1.00969, -13.9607,1.10000,0.90000,1.10000,0.90000
   181,'D181        ', 345.0000,1,   4,   4,   1,0.99292, -12.1228,1.10000,0.90000,1.10000,0.90000
   182,'D182        ', 345.0000,1,   4,   4,   1,0.99292, -12.1228,1.10000,0.90000,1.10000,0.90000
   183,'D183        ', 345.0000,2,   4,   4,   1,1.02455, -10.1891,1.10000,0.90000,1.10000,0.90000
   184,'D184        ', 345.0000,2,   4,   4,   1,1.02456, -10.1816,1.10000,0.90000,1.10000,0.90000
   185,'D185        ', 500.0000,2,   4,   4,   1,1.00798,  -4.7855,1.10000,0.90000,1.10000,0.90000
   186,'D186        ', 500.0000,2,   4,   4,   1,1.00804,  -4.7818,1.10000,0.90000,1.10000,0.90000
   187,'D187        ', 500.0000,2,   4,   4,   1,0.99028,  -0.3536,1.10000,0.90000,1.10000,0.90000
   188,'D188        ', 500.0000,1,   4,   4,   1,0.97069,  -6.1492,1.10000,0.90000,1.10000,0.90000
   189,'D189        ', 345.0000,1,   4,   4,   1,0.99095, -12.2520,1.10000,0.90000,1.10000,0.90000
   190,'D190        ', 345.0000,1,   4,   4,   1,1.00450,  -9.1686,1.10000,0.90000,1.10000,0.90000
   191,'D191        ', 345.0000,1,   4,   4,   1,1.00478,  -9.1786,1.10000,0.90000,1.10000,0.90000
   192,'D192        ', 500.0000,1,   4,   4,   1,0.97342,  -6.3006,1.10000,0.90000,1.10000,0.90000
   193,'D193        ', 345.0000,1,   4,   4,   1,0.98886,  -9.3551,1.10000,0.90000,1.10000,0.90000
   194,'D194        ', 345.0000,1,   4,   4,   1,1.04342,  -6.2128,1.10000,0.90000,1.10000,0.90000
   195,'D195        ', 500.0000,1,   4,   4,   1,0.99387,  -4.9051,1.10000,0.90000,1.10000,0.90000
   196,'D196        ', 500.0000,1,   4,   4,   1,0.99390,  -4.9097,1.10000,0.90000,1.10000,0.90000
   197,'D197        ', 500.0000,1,   4,   4,   1,0.99838,  -3.1009,1.10000,0.90000,1.10000,0.90000
   198,'D198        ', 138.0000,1,   4,   4,   1,1.02136, -13.9787,1.10000,0.90000,1.10000,0.90000
   199,'D199        ', 138.0000,2,   4,   4,   1,1.01500,  -9.3599,1.10000,0.90000,1.10000,0.90000
   200,'D200        ', 138.0000,1,   4,   4,   1,1.01500,  -9.3599,1.10000,0.90000,1.10000,0.90000
   201,'D201        ', 138.0000,1,   4,   4,   1,1.04625, -11.7915,1.10000,0.90000,1.10000,0.90000
   202,'D202        ', 138.0000,1,   4,   4,   1,1.03013, -13.6601,1.10000,0.90000,1.10000,0.90000
   203,'D203        ', 138.0000,1,   4,   4,   1,1.04385, -12.0733,1.10000,0.90000,1.10000,0.90000
   204,'D204        ', 138.0000,1,   4,   4,   1,1.03840, -12.7225,1.10000,0.90000,1.10000,0.90000
   205,'D205        ', 138.0000,2,   4,   4,   1,1.01091,  -9.3194,1.10000,0.90000,1.10000,0.90000
   206,'D206        ', 138.0000,2,   4,   4,   1,1.02187, -14.4341,1.10000,0.90000,1.10000,0.90000
   207,'D207        ', 138.0000,1,   4,   4,   1,1.01713,  -9.4317,1.10000,0.90000,1.10000,0.90000
   208,'D208        ', 138.0000,1,   4,   4,   1,1.03390, -13.2923,1.10000,0.90000,1.10000,0.90000
   209,'D209        ', 138.0000,1,   4,   4,   1,1.03297, -13.3286,1.10000,0.90000,1.10000,0.90000
   210,'D210        ', 138.0000,2,   4,   4,   1,1.00818, -15.1693,1.10000,0.90000,1.10000,0.90000
   211,'D211        ',  16.0000,1,   4,   4,   1,0.96913,  -6.1439,1.10000,0.90000,1.10000,0.90000
   212,'D212        ', 138.0000,1,   4,   4,   1,1.03679, -12.8573,1.10000,0.90000,1.10000,0.90000
   213,'D213        ', 138.0000,1,   4,   4,   1,1.04696, -11.7553,1.10000,0.90000,1.10000,0.90000
   214,'D214        ', 138.0000,1,   4,   4,   1,1.00535, -13.2292,1.10000,0.90000,1.10000,0.90000
   215,'D215        ', 138.0000,1,   4,   4,   1,1.00535, -13.2292,1.10000,0.90000,1.10000,0.90000
   216,'D216        ', 138.0000,1,   4,   4,   1,1.03264, -13.5013,1.10000,0.90000,1.10000,0.90000
   217,'D217        ', 138.0000,1,   4,   4,   1,1.04411, -12.0526,1.10000,0.90000,1.10000,0.90000
   218,'D218        ', 138.0000,1,   4,   4,   1,1.02363, -14.0582,1.10000,0.90000,1.10000,0.90000
   219,'D219        ', 138.0000,1,   4,   4,   1,1.01751, -15.3703,1.10000,0.90000,1.10000,0.90000
   220,'D220        ', 138.0000,1,   4,   4,   1,1.02523, -11.7626,1.10000,0.90000,1.10000,0.90000
   221,'D221        ', 138.0000,1,   4,   4,   1,1.01858, -14.6844,1.10000,0.90000,1.10000,0.90000
   222,'D222        ', 138.0000,2,   4,   4,   1,1.02727, -13.5298,1.10000,0.90000,1.10000,0.90000
   223,'D223        ', 138.0000,1,   4,   4,   1,1.03067,  -9.4792,1.10000,0.90000,1.10000,0.90000
   224,'D224        ', 138.0000,1,   4,   4,   1,1.03063,  -9.5010,1.10000,0.90000,1.10000,0.90000
   225,'D225        ', 138.0000,1,   4,   4,   1,1.02425,  -9.9324,1.10000,0.90000,1.10000,0.90000
   226,'D226        ', 138.0000,2,   4,   4,   1,1.02455,  -9.8951,1.10000,0.90000,1.10000,0.90000
   227,'D227        ', 138.0000,2,   4,   4,   1,1.02727,  -8.8563,1.10000,0.90000,1.10000,0.90000
   228,'D228        ', 138.0000,1,   4,   4,   1,1.02171, -10.7722,1.10000,0.90000,1.10000,0.90000
   229,'D229        ', 500.0000,1,   4,   4,   1,0.97349,  -6.3010,1.10000,0.90000,1.10000,0.90000
   230,'D230        ', 345.0000,2,   4,   4,   1,1.02478, -13.0259,1.10000,0.90000,1.10000,0.90000
   231,'E231        ',  69.0000,1,   5,   5,   1,1.02011, -15.3150,1.10000,0.90000,1.10000,0.90000
   232,'E232        ',  69.0000,1,   5,   5,   1,1.03276, -20.0339,1.10000,0.90000,1.10000,0.90000
   233,'E233        ',  69.0000,1,   5,   5,   1,1.01760,  -7.8930,1.10000,0.90000,1.10000,0.90000
   234,'E234        ',  69.0000,1,   5,   5,   1,0.99672, -23.6610,1.10000,0.90000,1.10000,0.90000
   235,'E235        ',  69.0000,1,   5,   5,   1,1.05270, -21.1429,1.10000,0.90000,1.10000,0.90000
   236,'E236        ',  69.0000,1,   5,   5,   1,1.01330,  -6.2660,1.10000,0.90000,1.10000,0.90000
   237,'E237        ',  13.8000,2,   5,   5,   1,1.02506, -13.8519,1.10000,0.90000,1.10000,0.90000
   238,'E238        ',  69.0000,1,   5,   5,   1,1.01908, -15.3245,1.10000,0.90000,1.10000,0.90000
   239,'E239        ',  69.0000,1,   5,   5,   1,1.02189, -21.1117,1.10000,0.90000,1.10000,0.90000
   240,'E240        ',  69.0000,1,   5,   5,   1,1.01154, -19.6147,1.10000,0.90000,1.10000,0.90000
   241,'E241        ',  69.0000,1,   5,   5,   1,1.05067, -20.7747,1.10000,0.90000,1.10000,0.90000
   242,'E242        ',  69.0000,1,   5,   5,   1,1.01588,  -5.9458,1.10000,0.90000,1.10000,0.90000
   243,'E243        ',  69.0000,1,   5,   5,   1,1.07389, -19.4894,1.10000,0.90000,1.10000,0.90000
   244,'E244        ', 161.0000,1,   5,   5,   1,1.00688, -11.0312,1.10000,0.90000,1.10000,0.90000
   245,'E245        ',  69.0000,1,   5,   5,   1,1.02476, -14.1464,1.10000,0.90000,1.10000,0.90000
   246,'E246        ',  69.0000,1,   5,   5,   1,1.05272, -21.0670,1.10000,0.90000,1.10000,0.90000
   247,'E247        ',  69.0000,1,   5,   5,   1,1.02130, -21.0481,1.10000,0.90000,1.10000,0.90000
   248,'E248        ', 138.0000,2,   5,   5,   1,1.01925, -13.1072,1.10000,0.90000,1.10000,0.90000
   249,'E249        ', 161.0000,1,   5,   5,   1,1.00975, -12.4986,1.10000,0.90000,1.10000,0.90000
   250,'E250        ',  69.0000,1,   5,   5,   1,1.01474, -19.7168,1.10000,0.90000,1.10000,0.90000
   251,'E251        ',  69.0000,1,   5,   5,   1,1.04401, -19.6569,1.10000,0.90000,1.10000,0.90000
   252,'E252        ',  69.0000,1,   5,   5,   1,1.02694, -13.6570,1.10000,0.90000,1.10000,0.90000
   253,'E253        ',  69.0000,1,   5,   5,   1,1.01901, -15.3246,1.10000,0.90000,1.10000,0.90000
   254,'E254        ',  69.0000,1,   5,   5,   1,1.06476, -21.3443,1.10000,0.90000,1.10000,0.90000
   255,'E255        ',  69.0000,1,   5,   5,   1,1.03652, -21.5524,1.10000,0.90000,1.10000,0.90000
   256,'E256        ',  69.0000,1,   5,   5,   1,1.01911, -14.4470,1.10000,0.90000,1.10000,0.90000
   257,'E257        ',  69.0000,1,   5,   5,   1,1.02459, -14.1685,1.10000,0.90000,1.10000,0.90000
   258,'E258        ',  69.0000,1,   5,   5,   1,1.01670, -18.9793,1.10000,0.90000,1.10000,0.90000
   259,'E259        ',  69.0000,1,   5,   5,   1,1.03052, -19.5975,1.10000,0.90000,1.10000,0.90000
   260,'E260        ', 138.0000,1,   5,   5,   1,1.00617, -16.9350,1.10000,0.90000,1.10000,0.90000
   261,'E261        ',  69.0000,1,   5,   5,   1,1.04128, -19.1534,1.10000,0.90000,1.10000,0.90000
   262,'E262        ',  69.0000,1,   5,   5,   1,1.02353, -18.0691,1.10000,0.90000,1.10000,0.90000
   263,'E263        ',  69.0000,1,   5,   5,   1,1.01258,  -6.3521,1.10000,0.90000,1.10000,0.90000
   264,'E264        ',  69.0000,1,   5,   5,   1,1.02775, -20.2773,1.10000,0.90000,1.10000,0.90000
   265,'E265        ', 345.0000,1,   5,   5,   1,1.02728,  -9.6238,1.10000,0.90000,1.10000,0.90000
   266,'E266        ',  69.0000,1,   5,   5,   1,1.02625, -13.7402,1.10000,0.90000,1.10000,0.90000
   267,'E267        ', 161.0000,1,   5,   5,   1,1.04176, -14.0685,1.10000,0.90000,1.10000,0.90000
   268,'E268        ', 138.0000,1,   5,   5,   1,1.02404, -12.0458,1.10000,0.90000,1.10000,0.90000
   269,'E269        ',  69.0000,1,   5,   5,   1,1.02007, -15.3283,1.10000,0.90000,1.10000,0.90000
   270,'E270        ',  69.0000,1,   5,   5,   1,1.01264, -19.6546,1.10000,0.90000,1.10000,0.90000
   271,'E271        ', 138.0000,2,   5,   5,   1,1.01118, -13.4309,1.10000,0.90000,1.10000,0.90000
   272,'E272        ',  69.0000,1,   5,   5,   1,1.03111, -15.7201,1.10000,0.90000,1.10000,0.90000
   273,'E273        ',  69.0000,1,   5,   5,   1,1.02893, -16.8848,1.10000,0.90000,1.10000,0.90000
   274,'E274        ',  69.0000,1,   5,   5,   1,1.01987, -13.8055,1.10000,0.90000,1.10000,0.90000
   275,'E275        ', 138.0000,2,   5,   5,   1,1.00554, -10.2893,1.10000,0.90000,1.10000,0.90000
   276,'E276        ',  69.0000,1,   5,   5,   1,1.03069, -19.6326,1.10000,0.90000,1.10000,0.90000
   277,'E277        ',  69.0000,1,   5,   5,   1,1.07443, -19.4701,1.10000,0.90000,1.10000,0.90000
   278,'E278        ', 161.0000,2,   5,   5,   1,1.00589, -13.6361,1.10000,0.90000,1.10000,0.90000
   279,'E279        ',  69.0000,1,   5,   5,   1,1.07156, -19.9759,1.10000,0.90000,1.10000,0.90000
   280,'E280        ',  13.8000,2,   5,   5,   1,1.02506, -13.8519,1.10000,0.90000,1.10000,0.90000
   281,'E281        ', 138.0000,2,   5,   5,   1,1.00867, -14.0452,1.10000,0.90000,1.10000,0.90000
   282,'E282        ',  69.0000,1,   5,   5,   1,1.04515, -19.8533,1.10000,0.90000,1.10000,0.90000
   283,'E283        ',  69.0000,1,   5,   5,   1,1.01168, -19.6195,1.10000,0.90000,1.10000,0.90000
   284,'E284        ',  69.0000,1,   5,   5,   1,1.03349, -20.1880,1.10000,0.90000,1.10000,0.90000
   285,'E285        ',  69.0000,1,   5,   5,   1,1.01811,  -5.6709,1.10000,0.90000,1.10000,0.90000
   286,'E286        ',  69.0000,1,   5,   5,   1,1.02393, -19.0632,1.10000,0.90000,1.10000,0.90000
   287,'E287        ',  69.0000,1,   5,   5,   1,1.01883, -11.1695,1.10000,0.90000,1.10000,0.90000
   288,'E288        ',  69.0000,1,   5,   5,   1,1.07287, -19.8002,1.10000,0.90000,1.10000,0.90000
   289,'E289        ',  69.0000,1,   5,   5,   1,1.01195, -19.6285,1.10000,0.90000,1.10000,0.90000
   290,'E290        ',  69.0000,1,   5,   5,   1,1.01506, -18.2686,1.10000,0.90000,1.10000,0.90000
   291,'E291        ',  69.0000,1,   5,   5,   1,1.02082, -13.2376,1.10000,0.90000,1.10000,0.90000
   292,'E292        ',  69.0000,1,   5,   5,   1,1.01856, -19.0817,1.10000,0.90000,1.10000,0.90000
   293,'E293        ', 230.0000,1,   5,   5,   1,1.02322, -15.3768,1.10000,0.90000,1.10000,0.90000
   294,'E294        ', 345.0000,1,   5,   5,   1,1.02651, -13.7682,1.10000,0.90000,1.10000,0.90000
   295,'E295        ',  69.0000,1,   5,   5,   1,1.04439, -16.2452,1.10000,0.90000,1.10000,0.90000
   296,'E296        ', 345.0000,2,   5,   5,   1,1.03320,  -5.0220,1.10000,0.90000,1.10000,0.90000
   297,'E297        ',  69.0000,1,   5,   5,   1,1.05900, -21.3676,1.10000,0.90000,1.10000,0.90000
   298,'E298        ',  69.0000,1,   5,   5,   1,1.01975, -14.0089,1.10000,0.90000,1.10000,0.90000