///////////////////////////////////////////////////////; 
// This glm created by 'Milsoft to GridLabD Export'. //; 
//             Wed May 21 16:25:10 2014              //; 
///////////////////////////////////////////////////////; 

clock { timestamp '2000-01-01 00:00:00'; } 

module powerflow{ solver_method FBS; } 
// Note: Number Of Looped Switches in WindMil = 0 

object node {
          name            Emily; 
          phases          ABCN; 
          bustype         PQ; 
          voltage_A       +7200+0j; 
          voltage_B       -3600-6235.3828j; 
          voltage_C       -3600+6235.3828j; 
          nominal_voltage 7200; 
          } 

object node {name   span_14654_n; phases BN; nominal_voltage 7200;  } 

object underground_line {
          name   span_14654; 
          from   E21-18-3B_n; 
          to     span_14654_n; 
          phases BN; 
          length 600.11145; 
          configuration SystemCnstDefaultB__1/0 URD; 
          } 

object node {name   E21-18-3B_n; phases BN; nominal_voltage 7200;  } 

object fuse {
          name          E21-18-3B; 
          from          span_48324_n; 
          to            E21-18-3B_n; 
          phases        BN; 
          current_limit 21.62385; 
          mean_replacement_time 1.0 ; 
          repair_dist_type      NONE; 
          } 

object node {name   span_43326_n; phases AN; nominal_voltage 119.99999;  } 

object underground_line {
          name   span_43326; 
          from   T2152037_n; 
          to     span_43326_n; 
          phases AN; 
          length 60.3671; 
          configuration SystemCnstDefaultA__4/0AL UG; 
          } 

object node {name   T2152037_n; phases AN; nominal_voltage 119.99999;  } 

object transformer {
          name   T2152037; 
          from   span_14947_n; 
          to     T2152037_n; 
          phases AN; 
          configuration SINGLE_PHASE-_15-7200To120V; 
          } 

object node {name   span_14947_n; phases AN; nominal_voltage 7200;  } 

object underground_line {
          name   span_14947; 
          from   E21-18-3A_n; 
          to     span_14947_n; 
          phases AN; 
          length 468.84616; 
          configuration SystemCnstDefaultA__1/0 URD; 
          } 

object node {name   E21-18-3A_n; phases AN; nominal_voltage 7200;  } 

object fuse {
          name          E21-18-3A; 
          from          span_48324_n; 
          to            E21-18-3A_n; 
          phases        AN; 
          current_limit 21.62385; 
          mean_replacement_time 1.0 ; 
          repair_dist_type      NONE; 
          } 

object node {name   span_48324_n; phases ABCN; nominal_voltage 7200;  } 

object underground_line {
          name   span_48324; 
          from   span_21052_n; 
          to     span_48324_n; 
          phases ABCN; 
          length 3600; 
          configuration SystemCnstDefaultABC__4/0 URD; 
          } 

object node {name   span_21052_n; phases ABCN; nominal_voltage 7200;  } 

object underground_line {
          name   span_21052; 
          from   span_21065_n; 
          to     span_21052_n; 
          phases ABCN; 
          length 1560.9355; 
          configuration SystemCnstDefaultABC__4/0 URD; 
          } 

object node {name   span_21065_n; phases ABCN; nominal_voltage 7200;  } 

object underground_line {
          name   span_21065; 
          from   span_71168_n; 
          to     span_21065_n; 
          phases ABCN; 
          length 2088.229; 
          configuration SystemCnstDefaultABC__4/0 URD; 
          } 

object node {name   span_71168_n; phases ABCN; nominal_voltage 7200;  } 

object underground_line {
          name   span_71168; 
          from   span_21083_n; 
          to     span_71168_n; 
          phases ABCN; 
          length 201.61963; 
          configuration SystemCnstDefaultABC__4/0 URD; 
          } 

object node {name   span_21083_n; phases ABCN; nominal_voltage 7200;  } 

object underground_line {
          name   span_21083; 
          from   span_21084_n; 
          to     span_21083_n; 
          phases ABCN; 
          length 2179.8198; 
          configuration SystemCnstDefaultABC__4/0 URD; 
          } 

object node {name   span_21084_n; phases ABCN; nominal_voltage 7200;  } 

object underground_line {
          name   span_21084; 
          from   span_21085_n; 
          to     span_21084_n; 
          phases ABCN; 
          length 2591.073; 
          configuration SystemCnstDefaultABC__4/0 URD; 
          } 

object node {name   span_21085_n; phases ABCN; nominal_voltage 7200;  } 

object underground_line {
          name   span_21085; 
          from   R22-15-1_n; 
          to     span_21085_n; 
          phases ABCN; 
          length 2819.3188; 
          configuration SystemCnstDefaultABC__4/0 URD; 
          } 

object node {name   R22-15-1_n; phases ABCN; nominal_voltage 7200;  } 

object recloser {
          name                R22-15-1; 
          from                span_21086_n; 
          to                  R22-15-1_n; 
          phases              ABCN; 
          max_number_of_tries 2; 
          } 

object node {name   span_21086_n; phases ABCN; nominal_voltage 7200;  } 

object underground_line {
          name   span_21086; 
          from   span_21088_n; 
          to     span_21086_n; 
          phases ABCN; 
          length 92.927299; 
          configuration SystemCnstDefaultABC__4/0 URD; 
          } 

object node {name   span_21088_n; phases ABCN; nominal_voltage 7200;  } 

object underground_line {
          name   span_21088; 
          from   span_21087_n; 
          to     span_21088_n; 
          phases ABCN; 
          length 266.90338; 
          configuration SystemCnstDefaultABC__4/0 URD; 
          } 

object node {name   span_21087_n; phases ABCN; nominal_voltage 7200;  } 

object underground_line {
          name   span_21087; 
          from   span_8090_n; 
          to     span_21087_n; 
          phases ABCN; 
          length 112.86855; 
          configuration SystemCnstDefaultABC__4/0 URD; 
          } 

object node {name   span_8090_n; phases ABCN; nominal_voltage 7200;  } 

object overhead_line {
          name   span_8090; 
          from   span_8091_n; 
          to     span_8090_n; 
          phases ABCN; 
          length 23.423162; 
          configuration SystemCnstDefaultABCN__1/0 AC; 
          } 

object node {name   span_8091_n; phases ABCN; nominal_voltage 7200;  } 

object overhead_line {
          name   span_8091; 
          from   EM CKT 2_n; 
          to     span_8091_n; 
          phases ABCN; 
          length 21709.232; 
          configuration SystemCnstDefaultABCN__1/0 AC; 
          } 

object node {name   EM CKT 2_n; phases ABCN; nominal_voltage 7200;  } 

object recloser {
          name                EM CKT 2; 
          from                Emily; 
          to                  EM CKT 2_n; 
          phases              ABCN; 
          max_number_of_tries 0; 
          } 

object transformer {
          name   T2213001; 
          from   span_14654_n; 
          to     T2213001_n; 
          phases BN; 
          configuration SINGLE_PHASE-_15-7200To120V; 
          } 

object node {name   T2213001_n; phases BN; nominal_voltage 119.99999;  } 

object underground_line {
          name   span_43336; 
          from   T2213001_n; 
          to     span_43336_n; 
          phases BN; 
          length 129.94722; 
          configuration SystemCnstDefaultB__4/0AL UG; 
          } 

object node {name   span_43336_n; phases BN; nominal_voltage 119.99999;  } 

object underground_line {
          name   span_48287; 
          from   span_48324_n; 
          to     span_48287_n; 
          phases BN; 
          length 64; 
          configuration SystemCnstDefaultB__1/0 URD; 
          } 

object node {name   span_48287_n; phases BN; nominal_voltage 7200;  } 

object fuse {
          name          E21-18-4; 
          from          span_48287_n; 
          to            E21-18-4_n; 
          phases        BN; 
          current_limit 74.744629; 
          mean_replacement_time 1.0 ; 
          repair_dist_type      NONE; 
          } 

object node {name   E21-18-4_n; phases BN; nominal_voltage 7200;  } 

object underground_line {
          name   span_48288; 
          from   E21-18-4_n; 
          to     span_48288_n; 
          phases BN; 
          length 1018; 
          configuration SystemCnstDefaultB__1/0 URD; 
          } 

object node {name   span_48288_n; phases BN; nominal_voltage 7200;  } 

object underground_line {
          name   span_14946; 
          from   span_48288_n; 
          to     span_14946_n; 
          phases BN; 
          length 166.38388; 
          configuration SystemCnstDefaultB__1/0 URD; 
          } 

object node {name   span_14946_n; phases BN; nominal_voltage 7200;  } 

object transformer {
          name   T2152038; 
          from   span_14946_n; 
          to     T2152038_n; 
          phases BN; 
          configuration SINGLE_PHASE-_15-7200To120V; 
          } 

object node {name   T2152038_n; phases BN; nominal_voltage 119.99999;  } 

object underground_line {
          name   span_43327; 
          from   T2152038_n; 
          to     span_43327_n; 
          phases BN; 
          length 101.1004; 
          configuration SystemCnstDefaultB__4/0AL UG; 
          } 

object node {name   span_43327_n; phases BN; nominal_voltage 119.99999;  } 

object underground_line {
          name   span_48531; 
          from   T2152038_n; 
          to     span_48531_n; 
          phases BN; 
          length 173.50752; 
          configuration SystemCnstDefaultB__4/0AL UG; 
          } 

object node {name   span_48531_n; phases BN; nominal_voltage 119.99999;  } 

object underground_line {
          name   span_43328; 
          from   span_48288_n; 
          to     span_43328_n; 
          phases BN; 
          length 603.15424; 
          configuration SystemCnstDefaultB__1/0 URD; 
          } 

object node {name   span_43328_n; phases BN; nominal_voltage 7200;  } 

object transformer {
          name   T2152040; 
          from   span_43328_n; 
          to     T2152040_n; 
          phases BN; 
          configuration SINGLE_PHASE-_15-7200To120V; 
          } 

object node {name   T2152040_n; phases BN; nominal_voltage 119.99999;  } 

object underground_line {
          name   span_43329; 
          from   T2152040_n; 
          to     span_43329_n; 
          phases BN; 
          length 181.33839; 
          configuration SystemCnstDefaultB__4/0AL UG; 
          } 

object node {name   span_43329_n; phases BN; nominal_voltage 119.99999;  } 

object underground_line {
          name   span_43333; 
          from   span_43328_n; 
          to     span_43333_n; 
          phases BN; 
          length 601.87689; 
          configuration SystemCnstDefaultB__1/0 URD; 
          } 

object node {name   span_43333_n; phases BN; nominal_voltage 7200;  } 

object transformer {
          name   T2152043; 
          from   span_43333_n; 
          to     T2152043_n; 
          phases BN; 
          configuration SINGLE_PHASE-_15-7200To120V; 
          } 

object node {name   T2152043_n; phases BN; nominal_voltage 119.99999;  } 

object underground_line {
          name   span_43335; 
          from   T2152043_n; 
          to     span_43335_n; 
          phases BN; 
          length 211.21063; 
          configuration SystemCnstDefaultB__4/0AL UG; 
          } 

object node {name   span_43335_n; phases BN; nominal_voltage 119.99999;  } 

object underground_line {
          name   span_43334; 
          from   span_43333_n; 
          to     span_43334_n; 
          phases BN; 
          length 788.36609; 
          configuration SystemCnstDefaultB__1/0 URD; 
          } 

object node {name   span_43334_n; phases BN; nominal_voltage 7200;  } 

object underground_line {
          name   span_43330; 
          from   span_43334_n; 
          to     span_43330_n; 
          phases BN; 
          length 139.39806; 
          configuration SystemCnstDefaultB__1/0 URD; 
          } 

object node {name   span_43330_n; phases BN; nominal_voltage 7200;  } 

object underground_line {
          name   span_43331; 
          from   span_43330_n; 
          to     span_43331_n; 
          phases BN; 
          length 199.95596; 
          configuration SystemCnstDefaultB__1/0 URD; 
          } 

object node {name   span_43331_n; phases BN; nominal_voltage 7200;  } 

object transformer {
          name   T2152041; 
          from   span_43330_n; 
          to     T2152041_n; 
          phases BN; 
          configuration SINGLE_PHASE-_15-7200To120V; 
          } 

object node {name   T2152041_n; phases BN; nominal_voltage 119.99999;  } 

object underground_line {
          name   span_43332; 
          from   T2152041_n; 
          to     span_43332_n; 
          phases BN; 
          length 193.37195; 
          configuration SystemCnstDefaultB__4/0AL UG; 
          } 

object node {name   span_43332_n; phases BN; nominal_voltage 119.99999;  } 

object underground_line {
          name   span_18730; 
          from   span_43334_n; 
          to     span_18730_n; 
          phases BN; 
          length 393.61908; 
          configuration SystemCnstDefaultB__1/0 URD; 
          } 

object node {name   span_18730_n; phases BN; nominal_voltage 7200;  } 

object underground_line {
          name   span_21050; 
          from   span_18730_n; 
          to     span_21050_n; 
          phases BN; 
          length 546.32343; 
          configuration SystemCnstDefaultB__1/0 URD; 
          } 

object node {name   span_21050_n; phases BN; nominal_voltage 7200;  } 

object underground_line {
          name   span_21051; 
          from   span_21050_n; 
          to     span_21051_n; 
          phases BN; 
          length 760.27203; 
          configuration SystemCnstDefaultB__1/0 URD; 
          } 

object node {name   span_21051_n; phases BN; nominal_voltage 7200;  } 

object underground_line {
          name   span_13975; 
          from   span_21051_n; 
          to     span_13975_n; 
          phases BN; 
          length 508.43665; 
          configuration SystemCnstDefaultB__1/0 URD; 
          } 

object node {name   span_13975_n; phases BN; nominal_voltage 7200;  } 

object transformer {
          name   T2152052; 
          from   span_13975_n; 
          to     T2152052_n; 
          phases BN; 
          configuration SINGLE_PHASE-_15-7200To120V; 
          } 

object node {name   T2152052_n; phases BN; nominal_voltage 120;  } 

object underground_line {
          name   span_22506; 
          from   T2152052_n; 
          to     span_22506_n; 
          phases BN; 
          length 101.53555; 
          configuration SystemCnstDefaultB__1/0AL UD; 
          } 

object node {name   span_22506_n; phases BN; nominal_voltage 120;  } 

object underground_line {
          name   span_19696; 
          from   span_21051_n; 
          to     span_19696_n; 
          phases BN; 
          length 1095.6116; 
          configuration SystemCnstDefaultB__1/0 URD; 
          } 

object node {name   span_19696_n; phases BN; nominal_voltage 7200;  } 

object transformer {
          name   T2152049; 
          from   span_19696_n; 
          to     T2152049_n; 
          phases BN; 
          configuration SINGLE_PHASE-_15-7200To120V; 
          } 

object node {name   T2152049_n; phases BN; nominal_voltage 120;  } 

object underground_line {
          name   span_24217; 
          from   T2152049_n; 
          to     span_24217_n; 
          phases BN; 
          length 122.45338; 
          configuration SystemCnstDefaultB__4/0AL UG; 
          } 

object node {name   span_24217_n; phases BN; nominal_voltage 120;  } 

object underground_line {
          name   span_20431; 
          from   span_19696_n; 
          to     span_20431_n; 
          phases BN; 
          length 128.75082; 
          configuration SystemCnstDefaultB__1/0 URD; 
          } 

object node {name   span_20431_n; phases BN; nominal_voltage 7200;  } 

object underground_line {
          name   span_15839; 
          from   span_20431_n; 
          to     span_15839_n; 
          phases BN; 
          length 60.855778; 
          configuration SystemCnstDefaultB__1/0 URD; 
          } 

object node {name   span_15839_n; phases BN; nominal_voltage 7200;  } 

object overhead_line {
          name   span_3042; 
          from   span_15839_n; 
          to     span_3042_n; 
          phases BN; 
          length 12.507362; 
          configuration SystemCnstDefaultBN__1/0 AC; 
          } 

object node {name   span_3042_n; phases BN; nominal_voltage 7200;  } 

object fuse {
          name          F21-18-3; 
          from          span_3042_n; 
          to            F21-18-3_n; 
          phases        BN; 
          current_limit 35.655785; 
          mean_replacement_time 1.0 ; 
          repair_dist_type      NONE; 
          } 

object node {name   F21-18-3_n; phases BN; nominal_voltage 7200;  } 

object overhead_line {
          name   span_3827; 
          from   F21-18-3_n; 
          to     span_3827_n; 
          phases BN; 
          length 642.13086; 
          configuration SystemCnstDefaultBN__1/0 AC; 
          } 

object node {name   span_3827_n; phases BN; nominal_voltage 7200;  } 

object overhead_line {
          name   span_3828; 
          from   span_3827_n; 
          to     span_3828_n; 
          phases BN; 
          length 900.70599; 
          configuration SystemCnstDefaultBN__1/0 AC; 
          } 

object node {name   span_3828_n; phases BN; nominal_voltage 7200;  } 

object overhead_line {
          name   span_8089; 
          from   span_3828_n; 
          to     span_8089_n; 
          phases BN; 
          length 341.86633; 
          configuration SystemCnstDefaultBN__1/0 AC; 
          } 

object node {name   span_8089_n; phases BN; nominal_voltage 7200;  } 

object overhead_line {
          name   span_8088; 
          from   span_8089_n; 
          to     span_8088_n; 
          phases BN; 
          length 11.144692; 
          configuration SystemCnstDefaultBN__1/0 AC; 
          } 

object node {name   span_8088_n; phases BN; nominal_voltage 7200;  } 

object transformer {
          name   T2151007; 
          from   span_8089_n; 
          to     T2151007_n; 
          phases BN; 
          configuration SINGLE_PHASE-_15-7200To120V; 
          } 

object node {name   T2151007_n; phases BN; nominal_voltage 119.99999;  } 

object overhead_line {
          name   span_43341; 
          from   T2151007_n; 
          to     span_43341_n; 
          phases BN; 
          length 381.15646; 
          configuration SystemCnstDefaultBN__1/0 Triplex; 
          } 

object node {name   span_43341_n; phases BN; nominal_voltage 119.99999;  } 

object overhead_line {
          name   span_43342; 
          from   T2151007_n; 
          to     span_43342_n; 
          phases BN; 
          length 407.20065; 
          configuration SystemCnstDefaultBN__1/0 Triplex; 
          } 

object node {name   span_43342_n; phases BN; nominal_voltage 119.99999;  } 

object overhead_line {
          name   span_1181; 
          from   span_3828_n; 
          to     span_1181_n; 
          phases BN; 
          length 262.67111; 
          configuration SystemCnstDefaultBN__4 AC; 
          } 

object node {name   span_1181_n; phases BN; nominal_voltage 7200;  } 

object transformer {
          name   T2151035; 
          from   span_1181_n; 
          to     T2151035_n; 
          phases BN; 
          configuration SINGLE_PHASE-_10-7200To120V; 
          } 

object node {name   T2151035_n; phases BN; nominal_voltage 119.99999;  } 

object overhead_line {
          name   span_43343; 
          from   T2151035_n; 
          to     span_43343_n; 
          phases BN; 
          length 341.50104; 
          configuration SystemCnstDefaultBN__1/0 Triplex; 
          } 

object node {name   span_43343_n; phases BN; nominal_voltage 119.99999;  } 

object overhead_line {
          name   span_43344; 
          from   T2151035_n; 
          to     span_43344_n; 
          phases BN; 
          length 353.01266; 
          configuration SystemCnstDefaultBN__1/0 Triplex; 
          } 

object node {name   span_43344_n; phases BN; nominal_voltage 119.99999;  } 

object underground_line {
          name   span_17663; 
          from   span_3827_n; 
          to     span_17663_n; 
          phases BN; 
          length 53.076591; 
          configuration SystemCnstDefaultB__1/0 URD; 
          } 

object node {name   span_17663_n; phases BN; nominal_voltage 7200;  } 

object fuse {
          name          F21-18-2; 
          from          span_17663_n; 
          to            F21-18-2_n; 
          phases        BN; 
          current_limit 19.168053; 
          mean_replacement_time 1.0 ; 
          repair_dist_type      NONE; 
          } 

object node {name   F21-18-2_n; phases BN; nominal_voltage 7200;  } 

object underground_line {
          name   span_17664; 
          from   F21-18-2_n; 
          to     span_17664_n; 
          phases BN; 
          length 1342.5587; 
          configuration SystemCnstDefaultB__1/0 URD; 
          } 

object node {name   span_17664_n; phases BN; nominal_voltage 7200;  } 

object transformer {
          name   T2152036; 
          from   span_17664_n; 
          to     T2152036_n; 
          phases BN; 
          configuration SINGLE_PHASE-_15-72000To12000V; 
          } 

object node {name   T2152036_n; phases BN; nominal_voltage 12000;  } 

object underground_line {
          name   span_48558; 
          from   T2152036_n; 
          to     span_48558_n; 
          phases BN; 
          length 49.242035; 
          configuration SystemCnstDefaultB__4/0AL UG; 
          } 

object node {name   span_48558_n; phases BN; nominal_voltage 12000;  } 

object overhead_line {
          name   span_10782; 
          from   span_3827_n; 
          to     span_10782_n; 
          phases BN; 
          length 347.26782; 
          configuration SystemCnstDefaultBN__4 AC; 
          } 

object node {name   span_10782_n; phases BN; nominal_voltage 7200;  } 

object overhead_line {
          name   span_10781; 
          from   span_10782_n; 
          to     span_10781_n; 
          phases BN; 
          length 206.49457; 
          configuration SystemCnstDefaultBN__4 AC; 
          } 

object node {name   span_10781_n; phases BN; nominal_voltage 7200;  } 

object transformer {
          name   T2151001; 
          from   span_10781_n; 
          to     T2151001_n; 
          phases BN; 
          configuration SINGLE_PHASE-_10-7200To120V; 
          } 

object node {name   T2151001_n; phases BN; nominal_voltage 119.99999;  } 

object overhead_line {
          name   span_43338; 
          from   T2151001_n; 
          to     span_43338_n; 
          phases BN; 
          length 46.043247; 
          configuration SystemCnstDefaultBN__1/0 Triplex; 
          } 

object node {name   span_43338_n; phases BN; nominal_voltage 119.99999;  } 

object overhead_line {
          name   span_43339; 
          from   span_43338_n; 
          to     span_43339_n; 
          phases BN; 
          length 71.941879; 
          configuration SystemCnstDefaultBN__1/0 Triplex; 
          } 

object node {name   span_43339_n; phases BN; nominal_voltage 119.99999;  } 

object overhead_line {
          name   span_43340; 
          from   span_43338_n; 
          to     span_43340_n; 
          phases BN; 
          length 49.81382; 
          configuration SystemCnstDefaultBN__1/0 Triplex; 
          } 

object node {name   span_43340_n; phases BN; nominal_voltage 119.99999;  } 

object overhead_line {
          name   span_6701; 
          from   span_10781_n; 
          to     span_6701_n; 
          phases BN; 
          length 265.74808; 
          configuration SystemCnstDefaultBN__4 AC; 
          } 

object node {name   span_6701_n; phases BN; nominal_voltage 7200;  } 

object transformer {
          name   T2151002; 
          from   span_6701_n; 
          to     T2151002_n; 
          phases BN; 
          configuration SINGLE_PHASE-_25-7200To120V; 
          } 

object node {name   T2151002_n; phases BN; nominal_voltage 120;  } 

object overhead_line {
          name   span_12403; 
          from   T2151002_n; 
          to     span_12403_n; 
          phases BN; 
          length 74.766182; 
          configuration SystemCnstDefaultBN__1/0 Triplex; 
          } 

object node {name   span_12403_n; phases BN; nominal_voltage 120;  } 

object overhead_line {
          name   span_12404; 
          from   T2151002_n; 
          to     span_12404_n; 
          phases BN; 
          length 268.93881; 
          configuration SystemCnstDefaultBN__1/0 Triplex; 
          } 

object node {name   span_12404_n; phases BN; nominal_voltage 120;  } 

object overhead_line {
          name   span_12290; 
          from   T2151002_n; 
          to     span_12290_n; 
          phases BN; 
          length 189.44005; 
          configuration SystemCnstDefaultBN__1/0 Triplex; 
          } 

object node {name   span_12290_n; phases BN; nominal_voltage 120;  } 

object overhead_line {
          name   span_12406; 
          from   T2151002_n; 
          to     span_12406_n; 
          phases BN; 
          length 165.7338; 
          configuration SystemCnstDefaultBN__1/0 Triplex; 
          } 

object node {name   span_12406_n; phases BN; nominal_voltage 120;  } 

object overhead_line {
          name   span_12405; 
          from   T2151002_n; 
          to     span_12405_n; 
          phases BN; 
          length 115.68774; 
          configuration SystemCnstDefaultBN__1/0 Triplex; 
          } 

object node {name   span_12405_n; phases BN; nominal_voltage 120;  } 

object transformer {
          name   T2151033; 
          from   span_10782_n; 
          to     T2151033_n; 
          phases BN; 
          configuration SINGLE_PHASE-_15-7200To120V; 
          } 

object node {name   T2151033_n; phases BN; nominal_voltage 119.99999;  } 

object overhead_line {
          name   span_43346; 
          from   T2151033_n; 
          to     span_43346_n; 
          phases BN; 
          length 219.78423; 
          configuration SystemCnstDefaultBN__1/0 Triplex; 
          } 

object node {name   span_43346_n; phases BN; nominal_voltage 119.99999;  } 

object overhead_line {
          name   span_43345; 
          from   T2151033_n; 
          to     span_43345_n; 
          phases BN; 
          length 243.59221; 
          configuration SystemCnstDefaultBN__1/0 Triplex; 
          } 

object node {name   span_43345_n; phases BN; nominal_voltage 119.99999;  } 

object underground_line {
          name   span_18734; 
          from   span_20431_n; 
          to     span_18734_n; 
          phases BN; 
          length 9.7268496; 
          configuration SystemCnstDefaultB__1/0 URD; 
          } 

object node {name   span_18734_n; phases BN; nominal_voltage 7200;  } 

object underground_line {
          name   span_15841; 
          from   span_18734_n; 
          to     span_15841_n; 
          phases BN; 
          length 376.35196; 
          configuration SystemCnstDefaultB__1/0 URD; 
          } 

object node {name   span_15841_n; phases BN; nominal_voltage 7200;  } 

object transformer {
          name   T2152050; 
          from   span_15841_n; 
          to     T2152050_n; 
          phases BN; 
          configuration SINGLE_PHASE-_15-7200To120V; 
          } 

object node {name   T2152050_n; phases BN; nominal_voltage 120;  } 

object underground_line {
          name   span_22509; 
          from   T2152050_n; 
          to     span_22509_n; 
          phases BN; 
          length 41.670876; 
          configuration SystemCnstDefaultB__1/0AL UD; 
          } 

object node {name   span_22509_n; phases BN; nominal_voltage 120;  } 

object underground_line {
          name   span_22508; 
          from   T2152050_n; 
          to     span_22508_n; 
          phases BN; 
          length 116.05122; 
          configuration SystemCnstDefaultB__1/0AL UD; 
          } 

object node {name   span_22508_n; phases BN; nominal_voltage 120;  } 

object underground_line {
          name   span_18735; 
          from   span_18734_n; 
          to     span_18735_n; 
          phases BN; 
          length 486.3642; 
          configuration SystemCnstDefaultB__1/0 URD; 
          } 

object node {name   span_18735_n; phases BN; nominal_voltage 7200;  } 

object underground_line {
          name   span_18542; 
          from   span_18735_n; 
          to     span_18542_n; 
          phases BN; 
          length 217.07687; 
          configuration SystemCnstDefaultB__1/0 URD; 
          } 

object node {name   span_18542_n; phases BN; nominal_voltage 7200;  } 

object fuse {
          name          F21-18-7; 
          from          span_18542_n; 
          to            F21-18-7_n; 
          phases        BN; 
          current_limit 35.655785; 
          mean_replacement_time 1.0 ; 
          repair_dist_type      NONE; 
          } 

object node {name   F21-18-7_n; phases BN; nominal_voltage 7200;  } 

object overhead_line {
          name   span_3477; 
          from   F21-18-7_n; 
          to     span_3477_n; 
          phases BN; 
          length 138.76875; 
          configuration SystemCnstDefaultBN__4 AC; 
          } 

object node {name   span_3477_n; phases BN; nominal_voltage 7200;  } 

object overhead_line {
          name   span_9352; 
          from   span_3477_n; 
          to     span_9352_n; 
          phases BN; 
          length 218.46844; 
          configuration SystemCnstDefaultBN__4 AC; 
          } 

object node {name   span_9352_n; phases BN; nominal_voltage 7200;  } 

object overhead_line {
          name   span_43353; 
          from   span_9352_n; 
          to     span_43353_n; 