///////////////////////////////////////////////////////; 
// This glm created by 'Milsoft to GridLabD Export'. //; 
//             Wed May 21 16:25:10 2014              //; 
///////////////////////////////////////////////////////; 

clock { timestamp '2000-01-01 00:00:00'; } 

module powerflow{ solver_method FBS; } 
// Note: Number Of Looped Switches in WindMil = 0 

object node {
          name            SUB 4; 
          phases          ABCN; 
          bustype         PQ; 
          voltage_A       +7200+0j; 
          voltage_B       -3600-6235.3828j; 
          voltage_C       -3600+6235.3828j; 
          nominal_voltage 7200; 
          } 

object node {name   span_121202_n; phases ABCN; nominal_voltage 7200;  } 

object overhead_line {
          name   span_121202; 
          from   span_121201_n; 
          to     span_121202_n; 
          phases ABCN; 
          length 325; 
          configuration SystemCnstDefaultABCN__4 AC; 
          } 

object node {name   span_121201_n; phases ABCN; nominal_voltage 7200;  } 

object overhead_line {
          name   span_121201; 
          from   span_121194_n; 
          to     span_121201_n; 
          phases ABCN; 
          length 260; 
          configuration SystemCnstDefaultABCN__4 AC; 
          } 

object node {name   span_121194_n; phases ABCN; nominal_voltage 7200;  } 

object overhead_line {
          name   span_121194; 
          from   span_121193_n; 
          to     span_121194_n; 
          phases ABCN; 
          length 250; 
          configuration SystemCnstDefaultABCN__4 AC; 
          } 

object node {name   span_121193_n; phases ABCN; nominal_voltage 7200;  } 

object overhead_line {
          name   span_121193; 
          from   span_121192_n; 
          to     span_121193_n; 
          phases ABCN; 
          length 236; 
          configuration SystemCnstDefaultABCN__4 AC; 
          } 

object node {name   span_121192_n; phases ABCN; nominal_voltage 7200;  } 

object overhead_line {
          name   span_121192; 
          from   span_121191_n; 
          to     span_121192_n; 
          phases ABCN; 
          length 253; 
          configuration SystemCnstDefaultABCN__4 AC; 
          } 

object node {name   span_121191_n; phases ABCN; nominal_voltage 7200;  } 

object overhead_line {
          name   span_121191; 
          from   span_121190_n; 
          to     span_121191_n; 
          phases ABCN; 
          length 284; 
          configuration SystemCnstDefaultABCN__4 AC; 
          } 

object node {name   span_121190_n; phases ABCN; nominal_voltage 7200;  } 

object overhead_line {
          name   span_121190; 
          from   span_9206_n; 
          to     span_121190_n; 
          phases ABCN; 
          length 310; 
          configuration SystemCnstDefaultABCN__4 AC; 
          } 

object node {name   span_9206_n; phases ABCN; nominal_voltage 7200;  } 

object overhead_line {
          name   span_9206; 
          from   span_9208_n; 
          to     span_9206_n; 
          phases ABCN; 
          length 506.57169; 
          configuration SystemCnstDefaultABCN__4 AC; 
          } 

object node {name   span_9208_n; phases ABCN; nominal_voltage 7200;  } 

object overhead_line {
          name   span_9208; 
          from   span_121200_n; 
          to     span_9208_n; 
          phases ABCN; 
          length 303.63385; 
          configuration SystemCnstDefaultABCN__4 AC; 
          } 

object node {name   span_121200_n; phases ABCN; nominal_voltage 7200;  } 

object overhead_line {
          name   span_121200; 
          from   span_121199_n; 
          to     span_121200_n; 
          phases ABCN; 
          length 253; 
          configuration SystemCnstDefaultABCN__4 AC; 
          } 

object node {name   span_121199_n; phases ABCN; nominal_voltage 7200;  } 

object overhead_line {
          name   span_121199; 
          from   span_9203_n; 
          to     span_121199_n; 
          phases ABCN; 
          length 257; 
          configuration SystemCnstDefaultABCN__4 AC; 
          } 

object node {name   span_9203_n; phases ABCN; nominal_voltage 7200;  } 

object overhead_line {
          name   span_9203; 
          from   span_54634_n; 
          to     span_9203_n; 
          phases ABCN; 
          length 549.85486; 
          configuration SystemCnstDefaultABCN__4 AC; 
          } 

object node {name   span_54634_n; phases ABCN; nominal_voltage 7200;  } 

object overhead_line {
          name   span_54634; 
          from   span_56913_n; 
          to     span_54634_n; 
          phases ABCN; 
          length 604; 
          configuration SystemCnstDefaultABCN__4 AC; 
          } 

object node {name   span_56913_n; phases ABCN; nominal_voltage 7200;  } 

object overhead_line {
          name   span_56913; 
          from   span_56912_n; 
          to     span_56913_n; 
          phases ABCN; 
          length 284; 
          configuration SystemCnstDefaultABCN__4 AC; 
          } 

object node {name   span_56912_n; phases ABCN; nominal_voltage 7200;  } 

object overhead_line {
          name   span_56912; 
          from   span_28246_n; 
          to     span_56912_n; 
          phases ABCN; 
          length 679; 
          configuration SystemCnstDefaultABCN__4 AC; 
          } 

object node {name   span_28246_n; phases ABCN; nominal_voltage 7200;  } 

object overhead_line {
          name   span_28246; 
          from   span_28245_n; 
          to     span_28246_n; 
          phases ABCN; 
          length 637.15479; 
          configuration SystemCnstDefaultABCN__4 AC; 
          } 

object node {name   span_28245_n; phases ABCN; nominal_voltage 7200;  } 

object overhead_line {
          name   span_28245; 
          from   SL30-6-4-A_n; 
          to     span_28245_n; 
          phases ABCN; 
          length 84.648125; 
          configuration SystemCnstDefaultABCN__4 AC; 
          } 

object switch {
          name   SL30-6-4-A; 
          from   span_15137_n; 
          to     SL30-6-4-A_n; 
          phases ABCN; 
          status CLOSED; 
          } 

object node {name   SL30-6-4-A_n; phases ABCN; nominal_voltage 7200;  } 

object node {name   span_15137_n; phases ABCN; nominal_voltage 7200;  } 

object underground_line {
          name   span_15137; 
          from   MC CKT 2_n; 
          to     span_15137_n; 
          phases ABCN; 
          length 588.48108; 
          configuration SystemCnstDefaultABC__500 MCM URD; 
          } 

object node {name   MC CKT 2_n; phases ABCN; nominal_voltage 7200;  } 

object recloser {
          name                MC CKT 2; 
          from                SUB 4; 
          to                  MC CKT 2_n; 
          phases              ABCN; 
          max_number_of_tries 2; 
          } 

object node {name   span_15687_n; phases BN; nominal_voltage 7200;  } 

object underground_line {
          name   span_15688; 
          from   span_51158_n; 
          to     span_15688_n; 
          phases BN; 
          length 80.046623; 
          configuration SystemCnstDefaultB__1/0 URD; 
          } 

object node {name   span_15688_n; phases BN; nominal_voltage 7200;  } 

object transformer {
          name   T2951256; 
          from   span_15688_n; 
          to     T2951256_n; 
          phases BN; 
          configuration SINGLE_PHASE-_15-7200To120V; 
          } 

object node {name   T2951256_n; phases BN; nominal_voltage 120;  } 

object underground_line {
          name   span_22271; 
          from   T2951256_n; 
          to     span_22271_n; 
          phases BN; 
          length 208.74527; 
          configuration SystemCnstDefaultB__1/0AL UD; 
          } 

object node {name   span_22271_n; phases BN; nominal_voltage 120;  } 

object underground_line {
          name   span_22272; 
          from   T2951256_n; 
          to     span_22272_n; 
          phases BN; 
          length 199.81468; 
          configuration SystemCnstDefaultB__1/0AL UD; 
          } 

object node {name   span_22272_n; phases BN; nominal_voltage 120;  } 

object transformer {
          name   T2951236; 
          from   span_20352_n; 
          to     T2951236_n; 
          phases BN; 
          configuration SINGLE_PHASE-_25-7200To120V; 
          } 

object node {name   T2951236_n; phases BN; nominal_voltage 120;  } 

object underground_line {
          name   span_22274; 
          from   T2951236_n; 
          to     span_22274_n; 
          phases BN; 
          length 48.120636; 
          configuration SystemCnstDefaultB__1/0AL UD; 
          } 

object node {name   span_22274_n; phases BN; nominal_voltage 120;  } 

object underground_line {
          name   span_22273; 
          from   T2951236_n; 
          to     span_22273_n; 
          phases BN; 
          length 43.916664; 
          configuration SystemCnstDefaultB__1/0AL UD; 
          } 

object node {name   span_22273_n; phases BN; nominal_voltage 120;  } 

object underground_line {
          name   span_22276; 
          from   T2951236_n; 
          to     span_22276_n; 
          phases BN; 
          length 46.180878; 
          configuration SystemCnstDefaultB__1/0AL UD; 
          } 

object node {name   span_22276_n; phases BN; nominal_voltage 120;  } 

object underground_line {
          name   span_22275; 
          from   T2951236_n; 
          to     span_22275_n; 
          phases BN; 
          length 45.527004; 
          configuration SystemCnstDefaultB__1/0AL UD; 
          } 

object node {name   span_22275_n; phases BN; nominal_voltage 120;  } 

object transformer {
          name   T2951233; 
          from   span_51156_n; 
          to     T2951233_n; 
          phases BN; 
          configuration SINGLE_PHASE-_50-7200To120V; 
          } 

object node {name   T2951233_n; phases BN; nominal_voltage 120;  } 

object underground_line {
          name   span_22277; 
          from   T2951233_n; 
          to     span_22277_n; 
          phases BN; 
          length 43.025398; 
          configuration SystemCnstDefaultB__1/0AL UD; 
          } 

object node {name   span_22277_n; phases BN; nominal_voltage 120;  } 

object transformer {
          name   T2951025; 
          from   span_47569_n; 
          to     T2951025_n; 
          phases BN; 
          configuration SINGLE_PHASE-_50-72000To12000V; 
          } 

object node {name   T2951025_n; phases BN; nominal_voltage 12000;  } 

object underground_line {
          name   span_47570; 
          from   T2951025_n; 
          to     span_47570_n; 
          phases BN; 
          length 26.333258; 
          configuration SystemCnstDefaultB__4/0AL UG; 
          } 

object node {name   span_47570_n; phases BN; nominal_voltage 12000;  } 

object transformer {
          name   T2951199; 
          from   span_47568_n; 
          to     T2951199_n; 
          phases BN; 
          configuration SINGLE_PHASE-_10-72000To12000V; 
          } 

object node {name   T2951199_n; phases BN; nominal_voltage 12000;  } 

object overhead_line {
          name   span_47571; 
          from   T2951199_n; 
          to     span_47571_n; 
          phases BN; 
          length 125.08868; 
          configuration SystemCnstDefaultBN__1/0 Triplex; 
          } 

object node {name   span_47571_n; phases BN; nominal_voltage 12000;  } 

object overhead_line {
          name   span_3084; 
          from   span_47552_n; 
          to     span_3084_n; 
          phases BN; 
          length 14.028515; 
          configuration SystemCnstDefaultBN__4 AC; 
          } 

object node {name   span_3084_n; phases BN; nominal_voltage 7200;  } 

object fuse {
          name          F29-31-12; 
          from          span_3084_n; 
          to            F29-31-12_n; 
          phases        BN; 
          current_limit 92.888939; 
          mean_replacement_time 1.0 ; 
          repair_dist_type      NONE; 
          } 

object node {name   F29-31-12_n; phases BN; nominal_voltage 7200;  } 

object overhead_line {
          name   span_5733; 
          from   F29-31-12_n; 
          to     span_5733_n; 
          phases BN; 
          length 62.138214; 
          configuration SystemCnstDefaultBN__4 AC; 
          } 

object node {name   span_5733_n; phases BN; nominal_voltage 7200;  } 

object transformer {
          name   T2951269; 
          from   span_5733_n; 
          to     T2951269_n; 
          phases BN; 
          configuration SINGLE_PHASE-_15-7200To120V; 
          } 

object node {name   T2951269_n; phases BN; nominal_voltage 120;  } 

object overhead_line {
          name   span_108388; 
          from   T2951269_n; 
          to     span_108388_n; 
          phases BN; 
          length 39; 
          configuration SystemCnstDefaultBN__1/0 Triplex; 
          } 

object node {name   span_108388_n; phases BN; nominal_voltage 120;  } 

object underground_line {
          name   span_108389; 
          from   serv_66793_n; 
          to     span_108389_n; 
          phases BN; 
          length 74; 
          configuration SystemCnstDefaultB__4/0AL UG; 
          } 

object node {name   span_108389_n; phases BN; nominal_voltage 120;  } 

object overhead_line {
          name   span_93172; 
          from   T2951269_n; 
          to     span_93172_n; 
          phases BN; 
          length 254; 
          configuration SystemCnstDefaultBN__1/0 Triplex; 
          } 

object node {name   span_93172_n; phases BN; nominal_voltage 120;  } 

object underground_line {
          name   span_93174; 
          from   serv_53178_n; 
          to     span_93174_n; 
          phases BN; 
          length 41.635132; 
          configuration SystemCnstDefaultB__4/0AL UG; 
          } 

object node {name   span_93174_n; phases BN; nominal_voltage 120;  } 

object underground_line {
          name   span_93173; 
          from   serv_53177_n; 
          to     span_93173_n; 
          phases BN; 
          length 44.389587; 
          configuration SystemCnstDefaultB__4/0AL UG; 
          } 

object node {name   span_93173_n; phases BN; nominal_voltage 120;  } 

object overhead_line {
          name   span_5734; 
          from   span_5733_n; 
          to     span_5734_n; 
          phases BN; 
          length 252.77826; 
          configuration SystemCnstDefaultBN__4 AC; 
          } 

object node {name   span_5734_n; phases BN; nominal_voltage 7200;  } 

object overhead_line {
          name   span_9351; 
          from   span_5734_n; 
          to     span_9351_n; 
          phases BN; 
          length 209.15631; 
          configuration SystemCnstDefaultBN__4 AC; 
          } 

object node {name   span_9351_n; phases BN; nominal_voltage 7200;  } 

object transformer {
          name   T2951218; 
          from   span_9351_n; 
          to     T2951218_n; 
          phases BN; 
          configuration SINGLE_PHASE--72000To12000V; 
          } 

object node {name   T2951218_n; phases BN; nominal_voltage 12000;  } 

object overhead_line {
          name   span_47556; 
          from   T2951218_n; 
          to     span_47556_n; 
          phases BN; 
          length 48.822945; 
          configuration SystemCnstDefaultBN__1/0 Triplex; 
          } 

object node {name   span_47556_n; phases BN; nominal_voltage 12000;  } 

object overhead_line {
          name   span_9350; 
          from   span_9351_n; 
          to     span_9350_n; 
          phases BN; 
          length 120.57809; 
          configuration SystemCnstDefaultBN__4 AC; 
          } 

object node {name   span_9350_n; phases BN; nominal_voltage 7200;  } 

object overhead_line {
          name   span_8498; 
          from   span_9350_n; 
          to     span_8498_n; 
          phases BN; 
          length 233.20251; 
          configuration SystemCnstDefaultBN__4 AC; 
          } 

object node {name   span_8498_n; phases BN; nominal_voltage 7200;  } 

object transformer {
          name   T2951003; 
          from   span_8498_n; 
          to     T2951003_n; 
          phases BN; 
          configuration SINGLE_PHASE-_10-72000To12000V; 
          } 

object node {name   T2951003_n; phases BN; nominal_voltage 12000;  } 

object overhead_line {
          name   span_47558; 
          from   T2951003_n; 
          to     span_47558_n; 
          phases BN; 
          length 46.025379; 
          configuration SystemCnstDefaultBN__1/0 Triplex; 
          } 

object node {name   span_47558_n; phases BN; nominal_voltage 12000;  } 

object overhead_line {
          name   span_47557; 
          from   T2951003_n; 
          to     span_47557_n; 
          phases BN; 
          length 59.538048; 
          configuration SystemCnstDefaultBN__1/0 Triplex; 
          } 

object node {name   span_47557_n; phases BN; nominal_voltage 12000;  } 

object underground_line {
          name   span_17707; 
          from   span_5734_n; 
          to     span_17707_n; 
          phases BN; 
          length 6.3454094; 
          configuration SystemCnstDefaultB__1/0 URD; 
          } 

object node {name   span_17707_n; phases BN; nominal_voltage 7200;  } 

object fuse {
          name          F29-30-17; 
          from          span_17707_n; 
          to            F29-30-17_n; 
          phases        BN; 
          current_limit 45.00544; 
          mean_replacement_time 1.0 ; 
          repair_dist_type      NONE; 
          } 

object node {name   F29-30-17_n; phases BN; nominal_voltage 7200;  } 

object underground_line {
          name   span_17708; 
          from   F29-30-17_n; 
          to     span_17708_n; 
          phases BN; 
          length 51.251072; 
          configuration SystemCnstDefaultB__1/0 URD; 
          } 

object node {name   span_17708_n; phases BN; nominal_voltage 7200;  } 

object transformer {
          name   T2951244; 
          from   span_17708_n; 
          to     T2951244_n; 
          phases BN; 
          configuration SINGLE_PHASE-_25-72000To12000V; 
          } 

object node {name   T2951244_n; phases BN; nominal_voltage 12000;  } 

object underground_line {
          name   span_47555; 
          from   T2951244_n; 
          to     span_47555_n; 
          phases BN; 
          length 20.717022; 
          configuration SystemCnstDefaultB__4/0AL UG; 
          } 

object node {name   span_47555_n; phases BN; nominal_voltage 12000;  } 

object transformer {
          name   tran_10425; 
          from   span_47551_n; 
          to     tran_10425_n; 
          phases BN; 
          configuration SINGLE_PHASE-_15-72000To12000V; 
          } 

object node {name   tran_10425_n; phases BN; nominal_voltage 12000;  } 

object transformer {
          name   tran_10426; 
          from   span_47551_n; 
          to     tran_10426_n; 
          phases CN; 
          configuration SINGLE_PHASE-_15-72000To12000V; 
          } 

object node {name   tran_10426_n; phases CN; nominal_voltage 12000;  } 

object node {name   fake_g_13_n; parent tran_10426_n; phases ABCN; nominal_voltage 12000;  } 

object overhead_line {
          name   span_47554; 
          from   fake_g_13_n; 
          to     span_47554_n; 
          phases ABCN; 
          length 206.30235; 
          configuration SystemCnstDefaultABCN__4/0 Quplex; 
          } 

object node {name   span_47554_n; phases ABCN; nominal_voltage 12000;  } 

object overhead_line {
          name   span_47553; 
          from   fake_g_13_n; 
          to     span_47553_n; 
          phases ABCN; 
          length 107.21112; 
          configuration SystemCnstDefaultABCN__4/0 Quplex; 
          } 

object node {name   span_47553_n; phases ABCN; nominal_voltage 12000;  } 

object transformer {
          name   T2951013; 
          from   span_47547_n; 
          to     T2951013_n; 
          phases AN; 
          configuration SINGLE_PHASE-_15-72000To12000V; 
          } 

object node {name   T2951013_n; phases AN; nominal_voltage 12000;  } 

object overhead_line {
          name   span_47548; 
          from   T2951013_n; 
          to     span_47548_n; 
          phases AN; 
          length 101.04941; 
          configuration SystemCnstDefaultAN__1/0 Triplex; 
          } 

object node {name   span_47548_n; phases AN; nominal_voltage 12000;  } 

object underground_line {
          name   span_54660; 
          from   serv_20614_n; 
          to     span_54660_n; 
          phases AN; 
          length 94.778877; 
          configuration SystemCnstDefaultA__4/0AL UG; 
          } 

object node {name   span_54660_n; phases AN; nominal_voltage 12000;  } 

object overhead_line {
          name   span_54659; 
          from   T2951013_n; 
          to     span_54659_n; 
          phases AN; 
          length 156; 
          configuration SystemCnstDefaultAN__#2 Triplex; 
          } 

object node {name   span_54659_n; phases AN; nominal_voltage 12000;  } 

object underground_line {
          name   span_54661; 
          from   serv_20612_n; 
          to     span_54661_n; 
          phases AN; 
          length 48.838505; 
          configuration SystemCnstDefaultA__4/0AL UG; 
          } 

object node {name   span_54661_n; phases AN; nominal_voltage 12000;  } 

object overhead_line {
          name   span_286; 
          from   span_47527_n; 
          to     span_286_n; 
          phases ABCN; 
          length 187.06198; 
          configuration SystemCnstDefaultABCN__1/0 AC; 
          } 

object node {name   span_286_n; phases ABCN; nominal_voltage 7200;  } 

object transformer {
          name   T2951071; 
          from   span_47531_n; 
          to     T2951071_n; 
          phases CN; 
          configuration SINGLE_PHASE-_15-72000To12000V; 
          } 

object node {name   T2951071_n; phases CN; nominal_voltage 12000;  } 

object overhead_line {
          name   span_47529; 
          from   T2951071_n; 
          to     span_47529_n; 
          phases CN; 
          length 78.649826; 
          configuration SystemCnstDefaultCN__1/0 Triplex; 
          } 

object node {name   span_47529_n; phases CN; nominal_voltage 12000;  } 

object overhead_line {
          name   span_47528; 
          from   T2951071_n; 
          to     span_47528_n; 
          phases CN; 
          length 48.546856; 
          configuration SystemCnstDefaultCN__1/0 Triplex; 
          } 

object node {name   span_47528_n; phases CN; nominal_voltage 12000;  } 

object transformer {
          name   T2951074; 
          from   span_47530_n; 
          to     T2951074_n; 
          phases CN; 
          configuration SINGLE_PHASE-_25-72000To12000V; 
          } 

object node {name   T2951074_n; phases CN; nominal_voltage 12000;  } 

object overhead_line {
          name   span_47994; 
          from   T2951074_n; 
          to     span_47994_n; 
          phases CN; 
          length 179.54408; 
          configuration SystemCnstDefaultCN__1/0 Triplex; 
          } 

object node {name   span_47994_n; phases CN; nominal_voltage 12000;  } 

object overhead_line {
          name   span_240; 
          from   span_5690_n; 
          to     span_240_n; 
          phases BN; 
          length 103.52566; 
          configuration SystemCnstDefaultBN__1/0 AC; 
          } 

object node {name   span_240_n; phases BN; nominal_voltage 7200;  } 

object transformer {
          name   T2951102; 
          from   span_240_n; 
          to     T2951102_n; 
          phases BN; 
          configuration SINGLE_PHASE-_10-72000To12000V; 
          } 

object node {name   T2951102_n; phases BN; nominal_voltage 12000;  } 

object overhead_line {
          name   span_47523; 
          from   T2951102_n; 
          to     span_47523_n; 
          phases BN; 
          length 92.474686; 
          configuration SystemCnstDefaultBN__1/0 Triplex; 
          } 

object node {name   span_47523_n; phases BN; nominal_voltage 12000;  } 

object overhead_line {
          name   span_47524; 
          from   T2951102_n; 
          to     span_47524_n; 
          phases BN; 
          length 120.18655; 
          configuration SystemCnstDefaultBN__1/0 Triplex; 
          } 

object node {name   span_47524_n; phases BN; nominal_voltage 12000;  } 

object overhead_line {
          name   span_47522; 
          from   T2951102_n; 
          to     span_47522_n; 
          phases BN; 
          length 44.005829; 
          configuration SystemCnstDefaultBN__1/0 Triplex; 
          } 

object node {name   span_47522_n; phases BN; nominal_voltage 12000;  } 

object transformer {
          name   TH29-51-77; 
          from   span_5690_n; 
          to     TH29-51-77_n; 
          phases BN; 
          configuration SINGLE_PHASE-_15-7200To120V; 
          } 

object node {name   TH29-51-77_n; phases BN; nominal_voltage 120;  } 

object overhead_line {
          name   span_43715; 
          from   TH29-51-77_n; 
          to     span_43715_n; 
          phases BN; 
          length 90.074242; 
          configuration SystemCnstDefaultBN__4/0 Triplex; 
          } 

object node {name   span_43715_n; phases BN; nominal_voltage 120;  } 

object overhead_line {
          name   span_43717; 
          from   span_43715_n; 
          to     span_43717_n; 
          phases BN; 
          length 66.632065; 
          configuration SystemCnstDefaultBN__1/0 Triplex; 
          } 

object node {name   span_43717_n; phases BN; nominal_voltage 120;  } 

object overhead_line {
          name   span_43718; 
          from   span_43715_n; 
          to     span_43718_n; 
          phases BN; 
          length 141.43559; 
          configuration SystemCnstDefaultBN__#2 Triplex; 
          } 

object node {name   span_43718_n; phases BN; nominal_voltage 120;  } 

object overhead_line {
          name   span_43716; 
          from   span_43715_n; 
          to     span_43716_n; 
          phases BN; 
          length 53.490005; 
          configuration SystemCnstDefaultBN__1/0 Triplex; 
          } 

object node {name   span_43716_n; phases BN; nominal_voltage 120;  } 

object fuse {
          name          F29-31-13; 
          from          span_5685_n; 
          to            F29-31-13_n; 
          phases        CN; 
          current_limit 92.888939; 
          mean_replacement_time 1.0 ; 
          repair_dist_type      NONE; 
          } 

object node {name   F29-31-13_n; phases CN; nominal_voltage 7200;  } 

object overhead_line {
          name   span_8499; 
          from   F29-31-13_n; 
          to     span_8499_n; 
          phases CN; 
          length 119.5411; 
          configuration SystemCnstDefaultCN__4 AC; 
          } 

object node {name   span_8499_n; phases CN; nominal_voltage 7200;  } 

object transformer {
          name   T2951080; 
          from   span_8499_n; 
          to     T2951080_n; 
          phases CN; 
          configuration SINGLE_PHASE-_10-72000To12000V; 
          } 

object node {name   T2951080_n; phases CN; nominal_voltage 12000;  } 

object underground_line {
          name   span_49148; 
          from   serv_16820_n; 
          to     span_49148_n; 
          phases CN; 
          length 38.204483; 
          configuration SystemCnstDefaultC__4/0AL UG; 
          } 

object node {name   span_49148_n; phases CN; nominal_voltage 12000;  } 

object overhead_line {
          name   span_8500; 
          from   span_8499_n; 
          to     span_8500_n; 
          phases CN; 
          length 123.78978; 
          configuration SystemCnstDefaultCN__4 AC; 
          } 

object node {name   span_8500_n; phases CN; nominal_voltage 7200;  } 

object overhead_line {
          name   span_6665; 
          from   span_8500_n; 
          to     span_6665_n; 
          phases CN; 
          length 126.30815; 
          configuration SystemCnstDefaultCN__4 AC; 
          } 

object node {name   span_6665_n; phases CN; nominal_voltage 7200;  } 

object overhead_line {
          name   span_6532; 
          from   span_6665_n; 
          to     span_6532_n; 
          phases CN; 
          length 137.05452; 
          configuration SystemCnstDefaultCN__4 AC; 
          } 

object node {name   span_6532_n; phases CN; nominal_voltage 7200;  } 

object overhead_line {
          name   span_6679; 
          from   span_6532_n; 
          to     span_6679_n; 
          phases CN; 
          length 24.806622; 
          configuration SystemCnstDefaultCN__4 AC; 
          } 

object node {name   span_6679_n; phases CN; nominal_voltage 7200;  } 

object overhead_line {
          name   span_6680; 
          from   span_6679_n; 
          to     span_6680_n; 
          phases CN; 
          length 103.28754; 
          configuration SystemCnstDefaultCN__4 AC; 
          } 

object node {name   span_6680_n; phases CN; nominal_voltage 7200;  } 

object overhead_line {
          name   span_5776; 
          from   span_6680_n; 
          to     span_5776_n; 
          phases CN; 
          length 99.215202; 
          configuration SystemCnstDefaultCN__4 AC; 
          } 

object node {name   span_5776_n; phases CN; nominal_voltage 7200;  } 

object overhead_line {
          name   span_5777; 
          from   span_5776_n; 
          to     span_5777_n; 
          phases CN; 