///////////////////////////////////////////////////////; 
// This glm created by 'Milsoft to GridLabD Export'. //; 
//             Wed May 21 16:25:07 2014              //; 
///////////////////////////////////////////////////////; 

clock { timestamp '2000-01-01 00:00:00'; } 

module powerflow{ solver_method FBS; } 
// Note: Number Of Looped Switches in WindMil = 0 

object node {
          name            SUB 9; 
          phases          ABCN; 
          bustype         PQ; 
          voltage_A       +7200+0j; 
          voltage_B       -3600-6235.3828j; 
          voltage_C       -3600+6235.3828j; 
          nominal_voltage 7200; 
          } 

object underground_line {
          name   span_23213; 
          from   T6060218_n; 
          to     span_23213_n; 
          phases ABCN; 
          length 61.897808; 
          configuration SystemCnstDefaultABC__4/0AL UG; 
          } 

object node {name   T6060218_n; phases ABCN; nominal_voltage 120;  } 

object transformer {
          name   T6060218; 
          from   span_15698_n; 
          to     T6060218_n; 
          phases ABCN; 
          configuration WYE_WYE-_15x3-7200To120V; 
          } 

object node {name   span_15698_n; phases ABCN; nominal_voltage 7200;  } 

object underground_line {
          name   span_15698; 
          from   SC60-28-21a-A_n; 
          to     span_15698_n; 
          phases ABCN; 
          length 50.95359; 
          configuration SystemCnstDefaultABC__4/0 URD; 
          } 

object switch {
          name   swit_211-B; 
          from   span_48785_n; 
          to     span_15695_n; 
          phases ABCN; 
          status OPEN; 
          } 

object node {name   span_48785_n; phases ABCN; nominal_voltage 7200;  } 

object underground_line {
          name   span_48785; 
          from   PMH60-28-25-A_n; 
          to     span_48785_n; 
          phases ABCN; 
          length 13.801598; 
          configuration SystemCnstDefaultABC__4/0 URD; 
          } 

object node {name   span_44603_n; phases ABCN; nominal_voltage 120;  } 

object underground_line {
          name   span_44603; 
          from   tran_45_n; 
          to     span_44603_n; 
          phases ABCN; 
          length 66.853607; 
          configuration SystemCnstDefaultABC__4/0AL UG; 
          } 

object node {name   tran_45_n; phases ABCN; nominal_voltage 120;  } 

object transformer {
          name   tran_45; 
          from   span_13840_n; 
          to     tran_45_n; 
          phases ABCN; 
          configuration WYE_WYE-x3-7200To120V; 
          } 

object node {name   span_13840_n; phases ABCN; nominal_voltage 7200;  } 

object underground_line {
          name   span_13840; 
          from   PMH60-28-25-A_n; 
          to     span_13840_n; 
          phases ABCN; 
          length 87.234055; 
          configuration SystemCnstDefaultABC__4/0 URD; 
          } 

object switch {
          name   PMH60-28-25-A; 
          from   span_15536_n; 
          to     PMH60-28-25-A_n; 
          phases ABCN; 
          status CLOSED; 
          } 

object node {name   PMH60-28-25-A_n; phases ABCN; nominal_voltage 7200;  } 

object node {name   span_15536_n; phases ABCN; nominal_voltage 7200;  } 

object underground_line {
          name   span_15536; 
          from   SC60-28-21a-A_n; 
          to     span_15536_n; 
          phases ABCN; 
          length 530.65704; 
          configuration SystemCnstDefaultABC__4/0 URD; 
          } 

object switch {
          name   SC60-28-21a-A; 
          from   span_15697_n; 
          to     SC60-28-21a-A_n; 
          phases ABCN; 
          status CLOSED; 
          } 

object node {name   SC60-28-21a-A_n; phases ABCN; nominal_voltage 7200;  } 

object node {name   span_15697_n; phases ABCN; nominal_voltage 7200;  } 

object underground_line {
          name   span_15697; 
          from   PMH60-28-5-A_n; 
          to     span_15697_n; 
          phases ABCN; 
          length 313.31439; 
          configuration SystemCnstDefaultABC__4/0 URD; 
          } 

object switch {
          name   PMH60-28-5-A; 
          from   span_14454_n; 
          to     PMH60-28-5-A_n; 
          phases ABCN; 
          status CLOSED; 
          } 

object node {name   PMH60-28-5-A_n; phases ABCN; nominal_voltage 7200;  } 

object node {name   span_14454_n; phases ABCN; nominal_voltage 7200;  } 

object underground_line {
          name   span_14454; 
          from   PMH60-28-4-A_n; 
          to     span_14454_n; 
          phases ABCN; 
          length 43.344986; 
          configuration SystemCnstDefaultABC__4/0 URD; 
          } 

object node {name   span_44599_n; phases ABCN; nominal_voltage 120000;  } 

object underground_line {
          name   span_44599; 
          from   T6060137_n; 
          to     span_44599_n; 
          phases ABCN; 
          length 52.773003; 
          configuration SystemCnstDefaultABC__4/0AL UG; 
          } 

object node {name   T6060137_n; phases ABCN; nominal_voltage 120000;  } 

object transformer {
          name   T6060137; 
          from   span_13838_n; 
          to     T6060137_n; 
          phases ABCN; 
          configuration WYE_WYE-_15x3-7200000To120000V; 
          } 

object node {name   span_13838_n; phases ABCN; nominal_voltage 7200;  } 

object underground_line {
          name   span_13838; 
          from   PMH60-28-4-A_n; 
          to     span_13838_n; 
          phases ABCN; 
          length 53.438511; 
          configuration SystemCnstDefaultABC__4/0 URD; 
          } 

object switch {
          name   PMH60-28-4-A; 
          from   span_20699_n; 
          to     PMH60-28-4-A_n; 
          phases ABCN; 
          status CLOSED; 
          } 

object node {name   PMH60-28-4-A_n; phases ABCN; nominal_voltage 7200;  } 

object node {name   span_20699_n; phases ABCN; nominal_voltage 7200;  } 

object underground_line {
          name   span_20699; 
          from   span_20700_n; 
          to     span_20699_n; 
          phases ABCN; 
          length 1646.9736; 
          configuration SystemCnstDefaultABC__4/0 URD; 
          } 

object node {name   span_20700_n; phases ABCN; nominal_voltage 7200;  } 

object underground_line {
          name   span_20700; 
          from   VL CKT 4_n; 
          to     span_20700_n; 
          phases ABCN; 
          length 2144.238; 
          configuration SystemCnstDefaultABC__4/0 URD; 
          } 

object node {name   VL CKT 4_n; phases ABCN; nominal_voltage 7200;  } 

object recloser {
          name                VL CKT 4; 
          from                SUB 9; 
          to                  VL CKT 4_n; 
          phases              ABCN; 
          max_number_of_tries 0; 
          } 

object overhead_line {
          name   span_44189; 
          from   T6065104_n; 
          to     span_44189_n; 
          phases AN; 
          length 95.395103; 
          configuration SystemCnstDefaultAN__1/0 Triplex; 
          } 

object node {name   span_44189_n; phases AN; nominal_voltage 120000;  } 

object overhead_line {
          name   span_44190; 
          from   span_44188_n; 
          to     span_44190_n; 
          phases ABCN; 
          length 165; 
          configuration SystemCnstDefaultABCN__4 AC; 
          } 

object node {name   span_44190_n; phases ABCN; nominal_voltage 7200;  } 

object overhead_line {
          name   span_44191; 
          from   span_44190_n; 
          to     span_44191_n; 
          phases ABCN; 
          length 277; 
          configuration SystemCnstDefaultABCN__4 AC; 
          } 

object node {name   span_44191_n; phases ABCN; nominal_voltage 7200;  } 

object overhead_line {
          name   span_44192; 
          from   span_44191_n; 
          to     span_44192_n; 
          phases ABCN; 
          length 194; 
          configuration SystemCnstDefaultABCN__4 AC; 
          } 

object node {name   span_44192_n; phases ABCN; nominal_voltage 7200;  } 

object overhead_line {
          name   span_11740; 
          from   span_44192_n; 
          to     span_11740_n; 
          phases ABCN; 
          length 293.62756; 
          configuration SystemCnstDefaultABCN__4 AC; 
          } 

object node {name   span_11740_n; phases ABCN; nominal_voltage 7200;  } 

object overhead_line {
          name   span_2721; 
          from   span_11740_n; 
          to     span_2721_n; 
          phases ABCN; 
          length 227.21971; 
          configuration SystemCnstDefaultABCN__4 AC; 
          } 

object node {name   span_2721_n; phases ABCN; nominal_voltage 7200;  } 

object overhead_line {
          name   span_11747; 
          from   span_2721_n; 
          to     span_11747_n; 
          phases ABCN; 
          length 115.28311; 
          configuration SystemCnstDefaultABCN__4 AC; 
          } 

object node {name   span_11747_n; phases ABCN; nominal_voltage 7200;  } 

object overhead_line {
          name   span_11748; 
          from   span_11747_n; 
          to     span_11748_n; 
          phases ABCN; 
          length 150.77541; 
          configuration SystemCnstDefaultABCN__4 AC; 
          } 

object node {name   span_11748_n; phases ABCN; nominal_voltage 7200;  } 

object overhead_line {
          name   span_11749; 
          from   span_11748_n; 
          to     span_11749_n; 
          phases ABCN; 
          length 101.3376; 
          configuration SystemCnstDefaultABCN__4 AC; 
          } 

object node {name   span_11749_n; phases ABCN; nominal_voltage 7200;  } 

object overhead_line {
          name   span_11750; 
          from   span_11749_n; 
          to     span_11750_n; 
          phases ABCN; 
          length 224.78004; 
          configuration SystemCnstDefaultABCN__4 AC; 
          } 

object node {name   span_11750_n; phases ABCN; nominal_voltage 7200;  } 

object overhead_line {
          name   span_3206; 
          from   span_11750_n; 
          to     span_3206_n; 
          phases AN; 
          length 20.072334; 
          configuration SystemCnstDefaultAN__4 AC; 
          } 

object node {name   span_3206_n; phases AN; nominal_voltage 7200;  } 

object fuse {
          name          F60-7-17; 
          from          span_3206_n; 
          to            F60-7-17_n; 
          phases        AN; 
          current_limit 45.00544; 
          mean_replacement_time 1.0 ; 
          repair_dist_type      NONE; 
          } 

object node {name   F60-7-17_n; phases AN; nominal_voltage 7200;  } 

object overhead_line {
          name   span_11751; 
          from   F60-7-17_n; 
          to     span_11751_n; 
          phases AN; 
          length 116.69913; 
          configuration SystemCnstDefaultAN__4 AC; 
          } 

object node {name   span_11751_n; phases AN; nominal_voltage 7200;  } 

object overhead_line {
          name   span_44372; 
          from   span_11751_n; 
          to     span_44372_n; 
          phases AN; 
          length 314; 
          configuration SystemCnstDefaultAN__4 AC; 
          } 

object node {name   span_44372_n; phases AN; nominal_voltage 7200;  } 

object overhead_line {
          name   span_44373; 
          from   span_44372_n; 
          to     span_44373_n; 
          phases AN; 
          length 127; 
          configuration SystemCnstDefaultAN__4 AC; 
          } 

object node {name   span_44373_n; phases AN; nominal_voltage 7200;  } 

object overhead_line {
          name   span_11753; 
          from   span_44373_n; 
          to     span_11753_n; 
          phases AN; 
          length 169.52512; 
          configuration SystemCnstDefaultAN__4 AC; 
          } 

object node {name   span_11753_n; phases AN; nominal_voltage 7200;  } 

object transformer {
          name   tran_9263; 
          from   span_11753_n; 
          to     tran_9263_n; 
          phases AN; 
          configuration SINGLE_PHASE-_15-7200000To120000V; 
          } 

object node {name   tran_9263_n; phases AN; nominal_voltage 120000;  } 

object overhead_line {
          name   span_44378; 
          from   tran_9263_n; 
          to     span_44378_n; 
          phases AN; 
          length 58.607075; 
          configuration SystemCnstDefaultAN__1/0 Triplex; 
          } 

object node {name   span_44378_n; phases AN; nominal_voltage 120000;  } 

object overhead_line {
          name   span_44377; 
          from   tran_9263_n; 
          to     span_44377_n; 
          phases AN; 
          length 65.686806; 
          configuration SystemCnstDefaultAN__1/0 Triplex; 
          } 

object node {name   span_44377_n; phases AN; nominal_voltage 120000;  } 

object overhead_line {
          name   span_11754; 
          from   span_11753_n; 
          to     span_11754_n; 
          phases AN; 
          length 116.79623; 
          configuration SystemCnstDefaultAN__4 AC; 
          } 

object node {name   span_11754_n; phases AN; nominal_voltage 7200;  } 

object overhead_line {
          name   span_11755; 
          from   span_11754_n; 
          to     span_11755_n; 
          phases AN; 
          length 232.15669; 
          configuration SystemCnstDefaultAN__4 AC; 
          } 

object node {name   span_11755_n; phases AN; nominal_voltage 7200;  } 

object overhead_line {
          name   span_11756; 
          from   span_11755_n; 
          to     span_11756_n; 
          phases AN; 
          length 249.11104; 
          configuration SystemCnstDefaultAN__4 AC; 
          } 

object node {name   span_11756_n; phases AN; nominal_voltage 7200;  } 

object transformer {
          name   T6052097; 
          from   span_11756_n; 
          to     T6052097_n; 
          phases AN; 
          configuration SINGLE_PHASE-_15-7200000To120000V; 
          } 

object node {name   T6052097_n; phases AN; nominal_voltage 120000;  } 

object overhead_line {
          name   span_44384; 
          from   T6052097_n; 
          to     span_44384_n; 
          phases AN; 
          length 83.029976; 
          configuration SystemCnstDefaultAN__1/0 Triplex; 
          } 

object node {name   span_44384_n; phases AN; nominal_voltage 120000;  } 

object overhead_line {
          name   span_44385; 
          from   span_44384_n; 
          to     span_44385_n; 
          phases AN; 
          length 109.75713; 
          configuration SystemCnstDefaultAN__1/0 Triplex; 
          } 

object node {name   span_44385_n; phases AN; nominal_voltage 120000;  } 

object overhead_line {
          name   span_11757; 
          from   span_11756_n; 
          to     span_11757_n; 
          phases AN; 
          length 145.62244; 
          configuration SystemCnstDefaultAN__4 AC; 
          } 

object node {name   span_11757_n; phases AN; nominal_voltage 7200;  } 

object overhead_line {
          name   span_44386; 
          from   span_11757_n; 
          to     span_44386_n; 
          phases AN; 
          length 187; 
          configuration SystemCnstDefaultAN__4 AC; 
          } 

object node {name   span_44386_n; phases AN; nominal_voltage 7200;  } 

object transformer {
          name   T6052006; 
          from   span_44386_n; 
          to     T6052006_n; 
          phases AN; 
          configuration SINGLE_PHASE-_15-7200000To120000V; 
          } 

object node {name   T6052006_n; phases AN; nominal_voltage 120000;  } 

object overhead_line {
          name   span_44388; 
          from   T6052006_n; 
          to     span_44388_n; 
          phases AN; 
          length 68.440315; 
          configuration SystemCnstDefaultAN__1/0 Triplex; 
          } 

object node {name   span_44388_n; phases AN; nominal_voltage 120000;  } 

object overhead_line {
          name   span_44389; 
          from   span_44388_n; 
          to     span_44389_n; 
          phases AN; 
          length 83.030357; 
          configuration SystemCnstDefaultAN__1/0 Triplex; 
          } 

object node {name   span_44389_n; phases AN; nominal_voltage 120000;  } 

object overhead_line {
          name   span_44390; 
          from   span_44389_n; 
          to     span_44390_n; 
          phases AN; 
          length 43.674862; 
          configuration SystemCnstDefaultAN__1/0 Triplex; 
          } 

object node {name   span_44390_n; phases AN; nominal_voltage 120000;  } 

object overhead_line {
          name   span_44387; 
          from   span_44386_n; 
          to     span_44387_n; 
          phases AN; 
          length 104; 
          configuration SystemCnstDefaultAN__4 AC; 
          } 

object node {name   span_44387_n; phases AN; nominal_voltage 7200;  } 

object overhead_line {
          name   span_11758; 
          from   span_44387_n; 
          to     span_11758_n; 
          phases AN; 
          length 166.07056; 
          configuration SystemCnstDefaultAN__4 AC; 
          } 

object node {name   span_11758_n; phases AN; nominal_voltage 7200;  } 

object overhead_line {
          name   span_1461; 
          from   span_11758_n; 
          to     span_1461_n; 
          phases AN; 
          length 111.11241; 
          configuration SystemCnstDefaultAN__4 AC; 
          } 

object node {name   span_1461_n; phases AN; nominal_voltage 7200;  } 

object transformer {
          name   T6065009; 
          from   span_1461_n; 
          to     T6065009_n; 
          phases AN; 
          configuration SINGLE_PHASE-_15-7200000To120000V; 
          } 

object node {name   T6065009_n; phases AN; nominal_voltage 120000;  } 

object overhead_line {
          name   span_44382; 
          from   T6065009_n; 
          to     span_44382_n; 
          phases AN; 
          length 50.587635; 
          configuration SystemCnstDefaultAN__1/0 Triplex; 
          } 

object node {name   span_44382_n; phases AN; nominal_voltage 120000;  } 

object overhead_line {
          name   span_44383; 
          from   span_44382_n; 
          to     span_44383_n; 
          phases AN; 
          length 70.26329; 
          configuration SystemCnstDefaultAN__1/0 Triplex; 
          } 

object node {name   span_44383_n; phases AN; nominal_voltage 120000;  } 

object overhead_line {
          name   span_44379; 
          from   T6065009_n; 
          to     span_44379_n; 
          phases AN; 
          length 37.155865; 
          configuration SystemCnstDefaultAN__1/0 Triplex; 
          } 

object node {name   span_44379_n; phases AN; nominal_voltage 120000;  } 

object overhead_line {
          name   span_44380; 
          from   span_44379_n; 
          to     span_44380_n; 
          phases AN; 
          length 56.071568; 
          configuration SystemCnstDefaultAN__1/0 Triplex; 
          } 

object node {name   span_44380_n; phases AN; nominal_voltage 120000;  } 

object overhead_line {
          name   span_44381; 
          from   span_44380_n; 
          to     span_44381_n; 
          phases AN; 
          length 78.968086; 
          configuration SystemCnstDefaultAN__1/0 Triplex; 
          } 

object node {name   span_44381_n; phases AN; nominal_voltage 120000;  } 

object overhead_line {
          name   span_11480; 
          from   span_11758_n; 
          to     span_11480_n; 
          phases AN; 
          length 145.62218; 
          configuration SystemCnstDefaultAN__4 AC; 
          } 

object node {name   span_11480_n; phases AN; nominal_voltage 7200;  } 

object overhead_line {
          name   span_11481; 
          from   span_11480_n; 
          to     span_11481_n; 
          phases AN; 
          length 145.64275; 
          configuration SystemCnstDefaultAN__4 AC; 
          } 

object node {name   span_11481_n; phases AN; nominal_voltage 7200;  } 

object overhead_line {
          name   span_11482; 
          from   span_11481_n; 
          to     span_11482_n; 
          phases AN; 
          length 106.6104; 
          configuration SystemCnstDefaultAN__4 AC; 
          } 

object node {name   span_11482_n; phases AN; nominal_voltage 7200;  } 

object transformer {
          name   T6052092; 
          from   span_11482_n; 
          to     T6052092_n; 
          phases AN; 
          configuration SINGLE_PHASE-_15-7200000To120000V; 
          } 

object node {name   T6052092_n; phases AN; nominal_voltage 120000;  } 

object overhead_line {
          name   span_44391; 
          from   T6052092_n; 
          to     span_44391_n; 
          phases AN; 
          length 53.503891; 
          configuration SystemCnstDefaultAN__1/0 Triplex; 
          } 

object node {name   span_44391_n; phases AN; nominal_voltage 120000;  } 

object overhead_line {
          name   span_11483; 
          from   span_11482_n; 
          to     span_11483_n; 
          phases AN; 
          length 184.64879; 
          configuration SystemCnstDefaultAN__4 AC; 
          } 

object node {name   span_11483_n; phases AN; nominal_voltage 7200;  } 

object fuse {
          name          F60-6-2; 
          from          span_11483_n; 
          to            F60-6-2_n; 
          phases        AN; 
          current_limit 19.168053; 
          mean_replacement_time 1.0 ; 
          repair_dist_type      NONE; 
          } 

object node {name   F60-6-2_n; phases AN; nominal_voltage 7200;  } 

object underground_line {
          name   span_46716; 
          from   F60-6-2_n; 
          to     span_46716_n; 
          phases AN; 
          length 391; 
          configuration SystemCnstDefaultA__1/0 URD; 
          } 

object node {name   span_46716_n; phases AN; nominal_voltage 7200;  } 

object underground_line {
          name   span_46717; 
          from   span_46716_n; 
          to     span_46717_n; 
          phases AN; 
          length 897; 
          configuration SystemCnstDefaultA__1/0 URD; 
          } 

object node {name   span_46717_n; phases AN; nominal_voltage 7200;  } 

object transformer {
          name   T6052013; 
          from   span_46717_n; 
          to     T6052013_n; 
          phases AN; 
          configuration SINGLE_PHASE-_15-7200000To120000V; 
          } 

object node {name   T6052013_n; phases AN; nominal_voltage 120000;  } 

object underground_line {
          name   span_44392; 
          from   T6052013_n; 
          to     span_44392_n; 
          phases AN; 
          length 23.363461; 
          configuration SystemCnstDefaultA__4/0AL UG; 
          } 

object node {name   span_44392_n; phases AN; nominal_voltage 120000;  } 

object transformer {
          name   T6052012; 
          from   span_46716_n; 
          to     T6052012_n; 
          phases AN; 
          configuration SINGLE_PHASE-_100-7200To120V; 
          } 

object node {name   T6052012_n; phases AN; nominal_voltage 120;  } 

object underground_line {
          name   span_24112; 
          from   T6052012_n; 
          to     span_24112_n; 
          phases AN; 
          length 90.442795; 
          configuration SystemCnstDefaultA__1/0AL UD; 
          } 

object node {name   span_24112_n; phases AN; nominal_voltage 120;  } 

object underground_line {
          name   span_22737; 
          from   T6052012_n; 
          to     span_22737_n; 
          phases AN; 
          length 57.065273; 
          configuration SystemCnstDefaultA__1/0AL UD; 
          } 

object node {name   span_22737_n; phases AN; nominal_voltage 120;  } 

object overhead_line {
          name   span_3848; 
          from   span_11483_n; 
          to     span_3848_n; 
          phases AN; 
          length 145.82399; 
          configuration SystemCnstDefaultAN__4 AC; 
          } 

object node {name   span_3848_n; phases AN; nominal_voltage 7200;  } 

object overhead_line {
          name   span_11918; 
          from   span_3848_n; 
          to     span_11918_n; 
          phases AN; 
          length 67.048141; 
          configuration SystemCnstDefaultAN__4 AC; 
          } 

object node {name   span_11918_n; phases AN; nominal_voltage 7200;  } 

object overhead_line {
          name   span_11919; 
          from   span_11918_n; 
          to     span_11919_n; 
          phases AN; 
          length 304.93301; 
          configuration SystemCnstDefaultAN__4 AC; 
          } 

object node {name   span_11919_n; phases AN; nominal_voltage 7200;  } 

object overhead_line {
          name   span_44405; 
          from   span_11919_n; 
          to     span_44405_n; 
          phases AN; 
          length 164; 
          configuration SystemCnstDefaultAN__4 AC; 
          } 

object node {name   span_44405_n; phases AN; nominal_voltage 7200;  } 

object transformer {
          name   T6052033; 
          from   span_44405_n; 
          to     T6052033_n; 
          phases AN; 
          configuration SINGLE_PHASE-_15-7200000To120000V; 
          } 

object node {name   T6052033_n; phases AN; nominal_voltage 120000;  } 

object overhead_line {
          name   span_44408; 
          from   T6052033_n; 
          to     span_44408_n; 
          phases AN; 
          length 102.84391; 
          configuration SystemCnstDefaultAN__1/0 Triplex; 
          } 

object node {name   span_44408_n; phases AN; nominal_voltage 120000;  } 

object overhead_line {
          name   span_44407; 
          from   T6052033_n; 
          to     span_44407_n; 
          phases AN; 
          length 40.895493; 
          configuration SystemCnstDefaultAN__1/0 Triplex; 
          } 

object node {name   span_44407_n; phases AN; nominal_voltage 120000;  } 

object overhead_line {
          name   span_44406; 
          from   span_44405_n; 
          to     span_44406_n; 
          phases AN; 
          length 110; 
          configuration SystemCnstDefaultAN__4 AC; 
          } 

object node {name   span_44406_n; phases AN; nominal_voltage 7200;  } 

object overhead_line {
          name   span_11535; 
          from   span_44406_n; 
          to     span_11535_n; 
          phases AN; 
          length 122.1506; 
          configuration SystemCnstDefaultAN__4 AC; 
          } 

object node {name   span_11535_n; phases AN; nominal_voltage 7200;  } 

object overhead_line {
          name   span_11536; 
          from   span_11535_n; 
          to     span_11536_n; 
          phases AN; 
          length 299.76855; 
          configuration SystemCnstDefaultAN__4 AC; 
          } 

object node {name   span_11536_n; phases AN; nominal_voltage 7200;  } 

object transformer {
          name   T6052034; 
          from   span_11536_n; 
          to     T6052034_n; 
          phases AN; 
          configuration SINGLE_PHASE-_15-7200000To120000V; 
          } 

object node {name   T6052034_n; phases AN; nominal_voltage 120000;  } 

object overhead_line {
          name   span_44411; 
          from   T6052034_n; 
          to     span_44411_n; 
          phases AN; 
          length 65.390404; 
          configuration SystemCnstDefaultAN__1/0 Triplex; 
          } 

object node {name   span_44411_n; phases AN; nominal_voltage 120000;  } 

object overhead_line {
          name   span_11781; 
          from   span_11536_n; 
          to     span_11781_n; 
          phases AN; 
          length 104.84877; 
          configuration SystemCnstDefaultAN__4 AC; 
          } 

object node {name   span_11781_n; phases AN; nominal_voltage 7200;  } 

object overhead_line {
          name   span_11782; 
          from   span_11781_n; 
          to     span_11782_n; 
          phases AN; 
          length 132.08415; 
          configuration SystemCnstDefaultAN__4 AC; 
          } 

object node {name   span_11782_n; phases AN; nominal_voltage 7200;  } 

object transformer {
          name   T6052021; 
          from   span_11782_n; 
          to     T6052021_n; 
          phases AN; 
          configuration SINGLE_PHASE-_15-7200000To120000V; 
          } 

object node {name   T6052021_n; phases AN; nominal_voltage 120000;  } 

object overhead_line {
          name   span_44412; 
          from   T6052021_n; 
          to     span_44412_n; 
          phases AN; 
          length 92.10524; 
          configuration SystemCnstDefaultAN__1/0 Triplex; 
          } 

object node {name   span_44412_n; phases AN; nominal_voltage 120000;  } 

object overhead_line {
          name   span_44413; 
          from   span_44412_n; 
          to     span_44413_n; 
          phases AN; 
          length 31.488342; 
          configuration SystemCnstDefaultAN__1/0 Triplex; 
          } 

object node {name   span_44413_n; phases AN; nominal_voltage 120000;  } 

object overhead_line {
          name   span_11783; 
          from   span_11782_n; 
          to     span_11783_n; 
          phases AN; 
          length 220.64496; 
          configuration SystemCnstDefaultAN__4 AC; 
          } 

object node {name   span_11783_n; phases AN; nominal_voltage 7200;  } 

object overhead_line {
          name   span_11785; 
          from   span_11783_n; 
          to     span_11785_n; 
          phases AN; 
          length 230.68227; 
          configuration SystemCnstDefaultAN__4 AC; 
          } 

object node {name   span_11785_n; phases AN; nominal_voltage 7200;  } 

object overhead_line {
          name   span_11784; 
          from   span_11785_n; 
          to     span_11784_n; 
          phases AN; 