///////////////////////////////////////////////////////; 
// This glm created by 'Milsoft to GridLabD Export'. //; 
//             Wed May 21 16:25:09 2014              //; 
///////////////////////////////////////////////////////; 

clock { timestamp '2000-01-01 00:00:00'; } 

module powerflow{ solver_method FBS; } 
// Note: Number Of Looped Switches in WindMil = 0 

object node {
          name            SUB 2; 
          phases          ABCN; 
          bustype         PQ; 
          voltage_A       +7200+0j; 
          voltage_B       -3600-6235.3828j; 
          voltage_C       -3600+6235.3828j; 
          nominal_voltage 7200; 
          } 

object node {name   span_32358_n; phases AN; nominal_voltage 120;  } 

object overhead_line {
          name   span_32358; 
          from   T4616002_n; 
          to     span_32358_n; 
          phases AN; 
          length 148.26295; 
          configuration SystemCnstDefaultAN__1/0 Triplex; 
          } 

object node {name   T4616002_n; phases AN; nominal_voltage 120;  } 

object transformer {
          name   T4616002; 
          from   span_32356_n; 
          to     T4616002_n; 
          phases AN; 
          configuration SINGLE_PHASE-_10-7200To120V; 
          } 

object node {name   span_32356_n; phases AN; nominal_voltage 7200;  } 

object overhead_line {
          name   span_32356; 
          from   span_32355_n; 
          to     span_32356_n; 
          phases AN; 
          length 442.76001; 
          configuration SystemCnstDefaultAN__4 AC; 
          } 

object node {name   span_32357_n; phases AN; nominal_voltage 120;  } 

object overhead_line {
          name   span_32357; 
          from   T4616003_n; 
          to     span_32357_n; 
          phases AN; 
          length 175.63594; 
          configuration SystemCnstDefaultAN__1/0 Triplex; 
          } 

object node {name   T4616003_n; phases AN; nominal_voltage 120;  } 

object transformer {
          name   T4616003; 
          from   span_32355_n; 
          to     T4616003_n; 
          phases AN; 
          configuration SINGLE_PHASE-_10-7200To120V; 
          } 

object node {name   span_32355_n; phases AN; nominal_voltage 7200;  } 

object overhead_line {
          name   span_32355; 
          from   span_5508_n; 
          to     span_32355_n; 
          phases AN; 
          length 305.05206; 
          configuration SystemCnstDefaultAN__4 AC; 
          } 

object node {name   span_5508_n; phases AN; nominal_voltage 7200;  } 

object overhead_line {
          name   span_5508; 
          from   F46-9-9_n; 
          to     span_5508_n; 
          phases AN; 
          length 795.16443; 
          configuration SystemCnstDefaultAN__4 AC; 
          } 

object node {name   F46-9-9_n; phases AN; nominal_voltage 7200;  } 

object fuse {
          name          F46-9-9; 
          from          span_1203_n; 
          to            F46-9-9_n; 
          phases        AN; 
          current_limit 92.888939; 
          mean_replacement_time 1.0 ; 
          repair_dist_type      NONE; 
          } 

object node {name   span_1203_n; phases ABCN; nominal_voltage 7200;  } 

object overhead_line {
          name   span_1203; 
          from   span_14348_n; 
          to     span_1203_n; 
          phases ABCN; 
          length 1643.7428; 
          configuration SystemCnstDefaultABCN__4/0 AC; 
          } 

object node {name   span_24420_n; phases AN; nominal_voltage 120;  } 

object underground_line {
          name   span_24420; 
          from   T4608006_n; 
          to     span_24420_n; 
          phases AN; 
          length 128.94334; 
          configuration SystemCnstDefaultA__1/0AL UD; 
          } 

object node {name   T4608006_n; phases AN; nominal_voltage 120;  } 

object transformer {
          name   T4608006; 
          from   span_15939_n; 
          to     T4608006_n; 
          phases AN; 
          configuration SINGLE_PHASE-_15-7200To120V; 
          } 

object node {name   span_15939_n; phases AN; nominal_voltage 7200;  } 

object underground_line {
          name   span_15939; 
          from   F46-9-8_n; 
          to     span_15939_n; 
          phases AN; 
          length 320; 
          configuration SystemCnstDefaultA__1/0 URD; 
          } 

object node {name   span_32338_n; phases AN; nominal_voltage 120;  } 

object overhead_line {
          name   span_32338; 
          from   T4609007_n; 
          to     span_32338_n; 
          phases AN; 
          length 98.336617; 
          configuration SystemCnstDefaultAN__1/0 Triplex; 
          } 

object node {name   T4609007_n; phases AN; nominal_voltage 120;  } 

object transformer {
          name   T4609007; 
          from   span_2171_n; 
          to     T4609007_n; 
          phases AN; 
          configuration SINGLE_PHASE-_10-7200To120V; 
          } 

object node {name   span_2171_n; phases AN; nominal_voltage 7200;  } 

object overhead_line {
          name   span_2171; 
          from   F46-9-8_n; 
          to     span_2171_n; 
          phases AN; 
          length 297.20483; 
          configuration SystemCnstDefaultAN__4 AC; 
          } 

object node {name   F46-9-8_n; phases AN; nominal_voltage 7200;  } 

object fuse {
          name          F46-9-8; 
          from          span_14348_n; 
          to            F46-9-8_n; 
          phases        AN; 
          current_limit 45.00544; 
          mean_replacement_time 1.0 ; 
          repair_dist_type      NONE; 
          } 

object node {name   span_14348_n; phases ABCN; nominal_voltage 7200;  } 

object underground_line {
          name   span_14348; 
          from   span_1204_n; 
          to     span_14348_n; 
          phases ABCN; 
          length 1790.2263; 
          configuration SystemCnstDefaultABC__4/0 URD; 
          } 

object node {name   span_1204_n; phases ABCN; nominal_voltage 7200;  } 

object overhead_line {
          name   span_1204; 
          from   span_13937_n; 
          to     span_1204_n; 
          phases ABCN; 
          length 277.52399; 
          configuration SystemCnstDefaultABCN__4/0 AC; 
          } 

object node {name   span_13937_n; phases ABCN; nominal_voltage 7200;  } 

object underground_line {
          name   span_13937; 
          from   GL CKT 3_n; 
          to     span_13937_n; 
          phases ABCN; 
          length 419.33783; 
          configuration SystemCnstDefaultABC__4/0 URD; 
          } 

object node {name   GL CKT 3_n; phases ABCN; nominal_voltage 7200;  } 

object recloser {
          name                GL CKT 3; 
          from                SUB 2; 
          to                  GL CKT 3_n; 
          phases              ABCN; 
          max_number_of_tries 2; 
          } 

object node {name   span_33196_n; phases BN; nominal_voltage 120;  } 

object transformer {
          name   T4154050; 
          from   span_33205_n; 
          to     T4154050_n; 
          phases BN; 
          configuration SINGLE_PHASE-_15-7200To120V; 
          } 

object node {name   T4154050_n; phases BN; nominal_voltage 120;  } 

object overhead_line {
          name   span_33200; 
          from   T4154050_n; 
          to     span_33200_n; 
          phases BN; 
          length 88.195595; 
          configuration SystemCnstDefaultBN__1/0 Triplex; 
          } 

object node {name   span_33200_n; phases BN; nominal_voltage 120;  } 

object overhead_line {
          name   span_33203; 
          from   T4154050_n; 
          to     span_33203_n; 
          phases BN; 
          length 338.99115; 
          configuration SystemCnstDefaultBN__1/0 Triplex; 
          } 

object node {name   span_33203_n; phases BN; nominal_voltage 120;  } 

object overhead_line {
          name   span_33204; 
          from   span_33203_n; 
          to     span_33204_n; 
          phases BN; 
          length 56.587227; 
          configuration SystemCnstDefaultBN__1/0 Triplex; 
          } 

object node {name   span_33204_n; phases BN; nominal_voltage 120;  } 

object overhead_line {
          name   span_33201; 
          from   T4154050_n; 
          to     span_33201_n; 
          phases BN; 
          length 349.82773; 
          configuration SystemCnstDefaultBN__1/0 Triplex; 
          } 

object node {name   span_33201_n; phases BN; nominal_voltage 120;  } 

object overhead_line {
          name   span_33202; 
          from   span_33201_n; 
          to     span_33202_n; 
          phases BN; 
          length 62.233952; 
          configuration SystemCnstDefaultBN__1/0 Triplex; 
          } 

object node {name   span_33202_n; phases BN; nominal_voltage 120;  } 

object transformer {
          name   T4154047; 
          from   span_33207_n; 
          to     T4154047_n; 
          phases BN; 
          configuration SINGLE_PHASE-_50-7200To120V; 
          } 

object node {name   T4154047_n; phases BN; nominal_voltage 120;  } 

object overhead_line {
          name   span_33206; 
          from   T4154047_n; 
          to     span_33206_n; 
          phases BN; 
          length 293.61935; 
          configuration SystemCnstDefaultBN__1/0 Triplex; 
          } 

object node {name   span_33206_n; phases BN; nominal_voltage 120;  } 

object transformer {
          name   T4154021; 
          from   span_33209_n; 
          to     T4154021_n; 
          phases BN; 
          configuration SINGLE_PHASE-_3-7200To120V; 
          } 

object node {name   T4154021_n; phases BN; nominal_voltage 120;  } 

object overhead_line {
          name   span_33208; 
          from   T4154021_n; 
          to     span_33208_n; 
          phases BN; 
          length 261.01913; 
          configuration SystemCnstDefaultBN__1/0 Triplex; 
          } 

object node {name   span_33208_n; phases BN; nominal_voltage 120;  } 

object transformer {
          name   T4154032; 
          from   span_33224_n; 
          to     T4154032_n; 
          phases BN; 
          configuration SINGLE_PHASE-_10-7200To120V; 
          } 

object node {name   T4154032_n; phases BN; nominal_voltage 120;  } 

object overhead_line {
          name   span_33222; 
          from   T4154032_n; 
          to     span_33222_n; 
          phases BN; 
          length 263.89587; 
          configuration SystemCnstDefaultBN__1/0 Triplex; 
          } 

object node {name   span_33222_n; phases BN; nominal_voltage 120;  } 

object overhead_line {
          name   span_1073; 
          from   span_5574_n; 
          to     span_1073_n; 
          phases BN; 
          length 247.3876; 
          configuration SystemCnstDefaultBN__4 AMER; 
          } 

object node {name   span_1073_n; phases BN; nominal_voltage 7200;  } 

object transformer {
          name   T4154031; 
          from   span_1073_n; 
          to     T4154031_n; 
          phases BN; 
          configuration SINGLE_PHASE-_10-7200To120V; 
          } 

object node {name   T4154031_n; phases BN; nominal_voltage 120;  } 

object overhead_line {
          name   span_33231; 
          from   T4154031_n; 
          to     span_33231_n; 
          phases BN; 
          length 175.46672; 
          configuration SystemCnstDefaultBN__1/0 Triplex; 
          } 

object node {name   span_33231_n; phases BN; nominal_voltage 120;  } 

object overhead_line {
          name   span_33230; 
          from   T4154031_n; 
          to     span_33230_n; 
          phases BN; 
          length 131.3076; 
          configuration SystemCnstDefaultBN__1/0 Triplex; 
          } 

object node {name   span_33230_n; phases BN; nominal_voltage 120;  } 

object overhead_line {
          name   span_33228; 
          from   T4154031_n; 
          to     span_33228_n; 
          phases BN; 
          length 142.4348; 
          configuration SystemCnstDefaultBN__1/0 Triplex; 
          } 

object node {name   span_33228_n; phases BN; nominal_voltage 120;  } 

object overhead_line {
          name   span_33229; 
          from   T4154031_n; 
          to     span_33229_n; 
          phases BN; 
          length 125.81799; 
          configuration SystemCnstDefaultBN__1/0 Triplex; 
          } 

object node {name   span_33229_n; phases BN; nominal_voltage 120;  } 

object underground_line {
          name   span_15179; 
          from   span_20960_n; 
          to     span_15179_n; 
          phases AN; 
          length 271.35794; 
          configuration SystemCnstDefaultA__1/0 URD; 
          } 

object node {name   span_15179_n; phases AN; nominal_voltage 7200;  } 

object transformer {
          name   T4116001; 
          from   span_15179_n; 
          to     T4116001_n; 
          phases AN; 
          configuration SINGLE_PHASE-_10-7200To120V; 
          } 

object node {name   T4116001_n; phases AN; nominal_voltage 120;  } 

object overhead_line {
          name   span_33193; 
          from   T4116001_n; 
          to     span_33193_n; 
          phases AN; 
          length 129.68417; 
          configuration SystemCnstDefaultAN__1/0 Triplex; 
          } 

object node {name   span_33193_n; phases AN; nominal_voltage 120;  } 

object fuse {
          name          F41-16-3; 
          from          span_20784_n; 
          to            F41-16-3_n; 
          phases        BN; 
          current_limit 45.00544; 
          mean_replacement_time 1.0 ; 
          repair_dist_type      NONE; 
          } 

object node {name   F41-16-3_n; phases BN; nominal_voltage 7200;  } 

object overhead_line {
          name   span_1878; 
          from   F41-16-3_n; 
          to     span_1878_n; 
          phases BN; 
          length 550.1084; 
          configuration SystemCnstDefaultBN__1/0 AC; 
          } 

object node {name   span_1878_n; phases BN; nominal_voltage 7200;  } 

object transformer {
          name   T4117004; 
          from   span_1878_n; 
          to     T4117004_n; 
          phases BN; 
          configuration SINGLE_PHASE-_10-7200To120V; 
          } 

object node {name   T4117004_n; phases BN; nominal_voltage 120;  } 

object overhead_line {
          name   span_33192; 
          from   T4117004_n; 
          to     span_33192_n; 
          phases BN; 
          length 146.974; 
          configuration SystemCnstDefaultBN__1/0 Triplex; 
          } 

object node {name   span_33192_n; phases BN; nominal_voltage 120;  } 

object transformer {
          name   tran_10977; 
          from   span_48794_n; 
          to     tran_10977_n; 
          phases CN; 
          configuration SINGLE_PHASE-_15-72000To12000V; 
          } 

object node {name   tran_10977_n; phases CN; nominal_voltage 12000;  } 

object overhead_line {
          name   span_48796; 
          from   tran_10977_n; 
          to     span_48796_n; 
          phases CN; 
          length 434.70923; 
          configuration SystemCnstDefaultCN__1/0 Triplex; 
          } 

object node {name   span_48796_n; phases CN; nominal_voltage 12000;  } 

object recloser {
          name                R41-20-3; 
          from                span_19658_n; 
          to                  R41-20-3_n; 
          phases              CN; 
          max_number_of_tries 4; 
          } 

object node {name   R41-20-3_n; phases CN; nominal_voltage 7200;  } 

object underground_line {
          name   span_19660; 
          from   R41-20-3_n; 
          to     span_19660_n; 
          phases CN; 
          length 544.51581; 
          configuration SystemCnstDefaultC__1/0 URD; 
          } 

object node {name   span_19660_n; phases CN; nominal_voltage 7200;  } 

object underground_line {
          name   span_19661; 
          from   span_19660_n; 
          to     span_19661_n; 
          phases CN; 
          length 880.78448; 
          configuration SystemCnstDefaultC__1/0 URD; 
          } 

object node {name   span_19661_n; phases CN; nominal_voltage 7200;  } 

object underground_line {
          name   span_19662; 
          from   span_19661_n; 
          to     span_19662_n; 
          phases CN; 
          length 1035.2556; 
          configuration SystemCnstDefaultC__1/0 URD; 
          } 

object node {name   span_19662_n; phases CN; nominal_voltage 7200;  } 

object underground_line {
          name   span_19663; 
          from   span_19662_n; 
          to     span_19663_n; 
          phases CN; 
          length 376.05591; 
          configuration SystemCnstDefaultC__1/0 URD; 
          } 

object node {name   span_19663_n; phases CN; nominal_voltage 7200;  } 

object underground_line {
          name   span_15761; 
          from   span_19663_n; 
          to     span_15761_n; 
          phases CN; 
          length 160.08041; 
          configuration SystemCnstDefaultC__1/0 URD; 
          } 

object node {name   span_15761_n; phases CN; nominal_voltage 7200;  } 

object transformer {
          name   T4117005; 
          from   span_15761_n; 
          to     T4117005_n; 
          phases CN; 
          configuration SINGLE_PHASE-_15-72000To12000V; 
          } 

object node {name   T4117005_n; phases CN; nominal_voltage 12000;  } 

object underground_line {
          name   span_48504; 
          from   T4117005_n; 
          to     span_48504_n; 
          phases CN; 
          length 91.107773; 
          configuration SystemCnstDefaultC__4/0AL UG; 
          } 

object node {name   span_48504_n; phases CN; nominal_voltage 12000;  } 

object underground_line {
          name   span_48505; 
          from   span_19663_n; 
          to     span_48505_n; 
          phases CN; 
          length 873; 
          configuration SystemCnstDefaultC__1/0 URD; 
          } 

object node {name   span_48505_n; phases CN; nominal_voltage 7200;  } 

object underground_line {
          name   span_48506; 
          from   span_48505_n; 
          to     span_48506_n; 
          phases CN; 
          length 739; 
          configuration SystemCnstDefaultC__1/0 URD; 
          } 

object node {name   span_48506_n; phases CN; nominal_voltage 7200;  } 

object underground_line {
          name   span_20954; 
          from   span_48506_n; 
          to     span_20954_n; 
          phases CN; 
          length 153.36754; 
          configuration SystemCnstDefaultC__1/0 URD; 
          } 

object node {name   span_20954_n; phases CN; nominal_voltage 7200;  } 

object underground_line {
          name   span_20953; 
          from   span_20954_n; 
          to     span_20953_n; 
          phases CN; 
          length 18.951729; 
          configuration SystemCnstDefaultC__1/0 URD; 
          } 

object node {name   span_20953_n; phases CN; nominal_voltage 7200;  } 

object node {name   SL41-17-3-A_n; phases CN; nominal_voltage 7200;  } 

object switch {
          name   SL41-17-3-A; 
          from   span_20953_n; 
          to     SL41-17-3-A_n; 
          phases CN; 
          status CLOSED; 
          } 

object overhead_line {
          name   span_33048; 
          from   SL41-17-3-A_n; 
          to     span_33048_n; 
          phases CN; 
          length 40.045475; 
          configuration SystemCnstDefaultCN__4 AC; 
          } 

object node {name   span_33048_n; phases CN; nominal_voltage 7200;  } 

object transformer {
          name   T4155037; 
          from   span_33048_n; 
          to     T4155037_n; 
          phases CN; 
          configuration SINGLE_PHASE-_10-7200To120V; 
          } 

object node {name   T4155037_n; phases CN; nominal_voltage 120;  } 

object overhead_line {
          name   span_33049; 
          from   T4155037_n; 
          to     span_33049_n; 
          phases CN; 
          length 132.87041; 
          configuration SystemCnstDefaultCN__1/0 Triplex; 
          } 

object node {name   span_33049_n; phases CN; nominal_voltage 120;  } 

object overhead_line {
          name   span_33050; 
          from   span_33048_n; 
          to     span_33050_n; 
          phases CN; 
          length 403.91409; 
          configuration SystemCnstDefaultCN__4 AC; 
          } 

object node {name   span_33050_n; phases CN; nominal_voltage 7200;  } 

object overhead_line {
          name   span_33051; 
          from   span_33050_n; 
          to     span_33051_n; 
          phases CN; 
          length 426.86639; 
          configuration SystemCnstDefaultCN__4 AC; 
          } 

object node {name   span_33051_n; phases CN; nominal_voltage 7200;  } 

object overhead_line {
          name   span_5127; 
          from   span_33051_n; 
          to     span_5127_n; 
          phases CN; 
          length 185.84074; 
          configuration SystemCnstDefaultCN__4 AC; 
          } 

object node {name   span_5127_n; phases CN; nominal_voltage 7200;  } 

object overhead_line {
          name   span_8173; 
          from   span_5127_n; 
          to     span_8173_n; 
          phases CN; 
          length 184.43214; 
          configuration SystemCnstDefaultCN__4 AC; 
          } 

object node {name   span_8173_n; phases CN; nominal_voltage 7200;  } 

object overhead_line {
          name   span_8174; 
          from   span_8173_n; 
          to     span_8174_n; 
          phases CN; 
          length 395.22775; 
          configuration SystemCnstDefaultCN__4 AC; 
          } 

object node {name   span_8174_n; phases CN; nominal_voltage 7200;  } 

object overhead_line {
          name   span_581; 
          from   span_8174_n; 
          to     span_581_n; 
          phases CN; 
          length 475.07739; 
          configuration SystemCnstDefaultCN__4 AC; 
          } 

object node {name   span_581_n; phases CN; nominal_voltage 7200;  } 

object transformer {
          name   T4155004; 
          from   span_581_n; 
          to     T4155004_n; 
          phases CN; 
          configuration SINGLE_PHASE-_10-7200To120V; 
          } 

object node {name   T4155004_n; phases CN; nominal_voltage 120;  } 

object overhead_line {
          name   span_33057; 
          from   T4155004_n; 
          to     span_33057_n; 
          phases CN; 
          length 326.35498; 
          configuration SystemCnstDefaultCN__1/0 Triplex; 
          } 

object node {name   span_33057_n; phases CN; nominal_voltage 120;  } 

object overhead_line {
          name   span_33056; 
          from   T4155004_n; 
          to     span_33056_n; 
          phases CN; 
          length 170.45345; 
          configuration SystemCnstDefaultCN__1/0 Triplex; 
          } 

object node {name   span_33056_n; phases CN; nominal_voltage 120;  } 

object overhead_line {
          name   span_33055; 
          from   T4155004_n; 
          to     span_33055_n; 
          phases CN; 
          length 94.538605; 
          configuration SystemCnstDefaultCN__1/0 Triplex; 
          } 

object node {name   span_33055_n; phases CN; nominal_voltage 120;  } 

object overhead_line {
          name   span_5128; 
          from   span_8174_n; 
          to     span_5128_n; 
          phases CN; 
          length 231.19606; 
          configuration SystemCnstDefaultCN__4 AC; 
          } 

object node {name   span_5128_n; phases CN; nominal_voltage 7200;  } 

object overhead_line {
          name   span_33099; 
          from   span_5128_n; 
          to     span_33099_n; 
          phases CN; 
          length 1549.9126; 
          configuration SystemCnstDefaultCN__4 AC; 
          } 

object node {name   span_33099_n; phases CN; nominal_voltage 7200;  } 

object transformer {
          name   T4118001; 
          from   span_33099_n; 
          to     T4118001_n; 
          phases CN; 
          configuration SINGLE_PHASE-_10-7200To120V; 
          } 

object node {name   T4118001_n; phases CN; nominal_voltage 120;  } 

object overhead_line {
          name   span_33101; 
          from   T4118001_n; 
          to     span_33101_n; 
          phases CN; 
          length 218.66234; 
          configuration SystemCnstDefaultCN__1/0 Triplex; 
          } 

object node {name   span_33101_n; phases CN; nominal_voltage 120;  } 

object overhead_line {
          name   span_33100; 
          from   span_33099_n; 
          to     span_33100_n; 
          phases CN; 
          length 921.35889; 
          configuration SystemCnstDefaultCN__4 AC; 
          } 

object node {name   span_33100_n; phases CN; nominal_voltage 7200;  } 

object overhead_line {
          name   span_42489; 
          from   span_33100_n; 
          to     span_42489_n; 
          phases CN; 
          length 228.41612; 
          configuration SystemCnstDefaultCN__4 AC; 
          } 

object node {name   span_42489_n; phases CN; nominal_voltage 7200;  } 

object node {name   fake_g_25_n; parent span_42489_n; phases BCN; nominal_voltage 7200;  } 

object switch {
          name   F41-7-4-A; 
          from   fake_g_25_n; 
          to     span_42489_n; 
          phases CN; 
          status OPEN; 
          } 

object overhead_line {
          name   span_227; 
          from   span_33100_n; 
          to     span_227_n; 
          phases CN; 
          length 348.375; 
          configuration SystemCnstDefaultCN__4 AC; 
          } 

object node {name   span_227_n; phases CN; nominal_voltage 7200;  } 

object transformer {
          name   T4107007; 
          from   span_227_n; 
          to     T4107007_n; 
          phases CN; 
          configuration SINGLE_PHASE-_10-7200To120V; 
          } 

object node {name   T4107007_n; phases CN; nominal_voltage 120;  } 

object overhead_line {
          name   span_30093; 
          from   T4107007_n; 
          to     span_30093_n; 
          phases CN; 
          length 249.95854; 
          configuration SystemCnstDefaultCN__1/0 Triplex; 
          } 

object node {name   span_30093_n; phases CN; nominal_voltage 120;  } 

object underground_line {
          name   span_19763; 
          from   span_227_n; 
          to     span_19763_n; 
          phases CN; 
          length 2343.3516; 
          configuration SystemCnstDefaultC__1/0 URD; 
          } 

object node {name   span_19763_n; phases CN; nominal_voltage 7200;  } 

object underground_line {
          name   span_30097; 
          from   span_19763_n; 
          to     span_30097_n; 
          phases CN; 
          length 526.55127; 
          configuration SystemCnstDefaultC__1/0 URD; 
          } 

object node {name   span_30097_n; phases CN; nominal_voltage 7200;  } 

object transformer {
          name   T4118004; 
          from   span_30097_n; 
          to     T4118004_n; 
          phases CN; 
          configuration SINGLE_PHASE-_10-7200To120V; 
          } 

object node {name   T4118004_n; phases CN; nominal_voltage 120;  } 

object overhead_line {
          name   span_30099; 
          from   T4118004_n; 
          to     span_30099_n; 
          phases CN; 
          length 163.72745; 
          configuration SystemCnstDefaultCN__1/0 Triplex; 
          } 

object node {name   span_30099_n; phases CN; nominal_voltage 120;  } 

object underground_line {
          name   span_30098; 
          from   span_30097_n; 
          to     span_30098_n; 
          phases CN; 
          length 155.90248; 
          configuration SystemCnstDefaultC__1/0 URD; 
          } 

object node {name   span_30098_n; phases CN; nominal_voltage 7200;  } 

object underground_line {
          name   span_20831; 
          from   span_30098_n; 
          to     span_20831_n; 
          phases CN; 
          length 308.67517; 
          configuration SystemCnstDefaultC__1/0 URD; 
          } 

object node {name   span_20831_n; phases CN; nominal_voltage 7200;  } 

object underground_line {
          name   span_13802; 
          from   span_20831_n; 
          to     span_13802_n; 
          phases CN; 
          length 462.98532; 
          configuration SystemCnstDefaultC__1/0 URD; 
          } 

object node {name   span_13802_n; phases CN; nominal_voltage 7200;  } 

object transformer {
          name   T4107006; 
          from   span_13802_n; 
          to     T4107006_n; 
          phases CN; 
          configuration SINGLE_PHASE-_15-72000To12000V; 
          } 

object node {name   T4107006_n; phases CN; nominal_voltage 12000;  } 

object underground_line {
          name   span_48604; 
          from   T4107006_n; 
          to     span_48604_n; 
          phases CN; 
          length 188.19199; 
          configuration SystemCnstDefaultC__1/0AL UG; 
          } 

object node {name   span_48604_n; phases CN; nominal_voltage 12000;  } 

object underground_line {
          name   span_19762; 
          from   span_20831_n; 
          to     span_19762_n; 
          phases CN; 
          length 855.98236; 
          configuration SystemCnstDefaultC__1/0 URD; 
          } 

object node {name   span_19762_n; phases CN; nominal_voltage 7200;  } 

object overhead_line {
          name   span_1532; 
          from   span_19762_n; 
          to     span_1532_n; 
          phases CN; 
          length 153.25916; 
          configuration SystemCnstDefaultCN__4 AC; 
          } 

object node {name   span_1532_n; phases CN; nominal_voltage 7200;  } 

object transformer {
          name   T4118005; 
          from   span_1532_n; 
          to     T4118005_n; 
          phases CN; 