///////////////////////////////////////////////////////; 
// This glm created by 'Milsoft to GridLabD Export'. //; 
//             Wed May 21 16:25:10 2014              //; 
///////////////////////////////////////////////////////; 

clock { timestamp '2000-01-01 00:00:00'; } 

module powerflow{ solver_method FBS; } 
// Note: Number Of Looped Switches in WindMil = 0 

object node {
          name            SUB 6; 
          phases          ABCN; 
          bustype         PQ; 
          voltage_A       +7200+0j; 
          voltage_B       -3600-6235.3828j; 
          voltage_C       -3600+6235.3828j; 
          nominal_voltage 7200; 
          } 

object node {name   span_6915_n; phases ABCN; nominal_voltage 7200;  } 

object overhead_line {
          name   span_6915; 
          from   span_6916_n; 
          to     span_6915_n; 
          phases ABCN; 
          length 264.32736; 
          configuration SystemCnstDefaultABCN__1/0 AC; 
          } 

object node {name   span_6916_n; phases ABCN; nominal_voltage 7200;  } 

object overhead_line {
          name   span_6916; 
          from   span_6917_n; 
          to     span_6916_n; 
          phases ABCN; 
          length 264; 
          configuration SystemCnstDefaultABCN__1/0 AC; 
          } 

object node {name   span_6917_n; phases ABCN; nominal_voltage 7200;  } 

object overhead_line {
          name   span_6917; 
          from   span_6918_n; 
          to     span_6917_n; 
          phases ABCN; 
          length 342.88925; 
          configuration SystemCnstDefaultABCN__1/0 AC; 
          } 

object node {name   span_6918_n; phases ABCN; nominal_voltage 7200;  } 

object overhead_line {
          name   span_6918; 
          from   span_6919_n; 
          to     span_6918_n; 
          phases ABCN; 
          length 296.76294; 
          configuration SystemCnstDefaultABCN__1/0 AC; 
          } 

object node {name   span_6919_n; phases ABCN; nominal_voltage 7200;  } 

object overhead_line {
          name   span_6919; 
          from   span_6920_n; 
          to     span_6919_n; 
          phases ABCN; 
          length 288.58563; 
          configuration SystemCnstDefaultABCN__1/0 AC; 
          } 

object node {name   span_6920_n; phases ABCN; nominal_voltage 7200;  } 

object overhead_line {
          name   span_6920; 
          from   span_6921_n; 
          to     span_6920_n; 
          phases ABCN; 
          length 289.6221; 
          configuration SystemCnstDefaultABCN__1/0 AC; 
          } 

object node {name   span_6921_n; phases ABCN; nominal_voltage 7200;  } 

object overhead_line {
          name   span_6921; 
          from   span_6922_n; 
          to     span_6921_n; 
          phases ABCN; 
          length 264.23877; 
          configuration SystemCnstDefaultABCN__1/0 AC; 
          } 

object node {name   span_6922_n; phases ABCN; nominal_voltage 7200;  } 

object overhead_line {
          name   span_6922; 
          from   span_6923_n; 
          to     span_6922_n; 
          phases ABCN; 
          length 266.63196; 
          configuration SystemCnstDefaultABCN__1/0 AC; 
          } 

object node {name   span_6923_n; phases ABCN; nominal_voltage 7200;  } 

object overhead_line {
          name   span_6923; 
          from   span_6924_n; 
          to     span_6923_n; 
          phases ABCN; 
          length 252.71976; 
          configuration SystemCnstDefaultABCN__1/0 AC; 
          } 

object node {name   span_6924_n; phases ABCN; nominal_voltage 7200;  } 

object overhead_line {
          name   span_6924; 
          from   span_6925_n; 
          to     span_6924_n; 
          phases ABCN; 
          length 201.61023; 
          configuration SystemCnstDefaultABCN__1/0 AC; 
          } 

object node {name   span_6925_n; phases ABCN; nominal_voltage 7200;  } 

object overhead_line {
          name   span_6925; 
          from   span_6926_n; 
          to     span_6925_n; 
          phases ABCN; 
          length 241.85367; 
          configuration SystemCnstDefaultABCN__1/0 AC; 
          } 

object node {name   span_6926_n; phases ABCN; nominal_voltage 7200;  } 

object overhead_line {
          name   span_6926; 
          from   span_6927_n; 
          to     span_6926_n; 
          phases ABCN; 
          length 241.99933; 
          configuration SystemCnstDefaultABCN__1/0 AC; 
          } 

object node {name   span_6927_n; phases ABCN; nominal_voltage 7200;  } 

object overhead_line {
          name   span_6927; 
          from   span_6928_n; 
          to     span_6927_n; 
          phases ABCN; 
          length 250.95097; 
          configuration SystemCnstDefaultABCN__1/0 AC; 
          } 

object node {name   span_6928_n; phases ABCN; nominal_voltage 7200;  } 

object overhead_line {
          name   span_6928; 
          from   span_6929_n; 
          to     span_6928_n; 
          phases ABCN; 
          length 208.34772; 
          configuration SystemCnstDefaultABCN__1/0 AC; 
          } 

object node {name   span_6929_n; phases ABCN; nominal_voltage 7200;  } 

object overhead_line {
          name   span_6929; 
          from   span_6930_n; 
          to     span_6929_n; 
          phases ABCN; 
          length 212.32831; 
          configuration SystemCnstDefaultABCN__1/0 AC; 
          } 

object node {name   span_6930_n; phases ABCN; nominal_voltage 7200;  } 

object overhead_line {
          name   span_6930; 
          from   span_6931_n; 
          to     span_6930_n; 
          phases ABCN; 
          length 247.18324; 
          configuration SystemCnstDefaultABCN__1/0 AC; 
          } 

object node {name   span_6931_n; phases ABCN; nominal_voltage 7200;  } 

object overhead_line {
          name   span_6931; 
          from   span_6933_n; 
          to     span_6931_n; 
          phases ABCN; 
          length 207.98135; 
          configuration SystemCnstDefaultABCN__1/0 AC; 
          } 

object node {name   span_6933_n; phases ABCN; nominal_voltage 7200;  } 

object overhead_line {
          name   span_6933; 
          from   span_6932_n; 
          to     span_6933_n; 
          phases ABCN; 
          length 221.87135; 
          configuration SystemCnstDefaultABCN__1/0 AC; 
          } 

object node {name   span_6932_n; phases ABCN; nominal_voltage 7200;  } 

object overhead_line {
          name   span_6932; 
          from   OP CKT 1_n; 
          to     span_6932_n; 
          phases ABCN; 
          length 221.81357; 
          configuration SystemCnstDefaultABCN__1/0 AC; 
          } 

object node {name   OP CKT 1_n; phases ABCN; nominal_voltage 7200;  } 

object recloser {
          name                OP CKT 1; 
          from                SUB 6; 
          to                  OP CKT 1_n; 
          phases              ABCN; 
          max_number_of_tries 2; 
          } 

object transformer {
          name   T5457014; 
          from   span_34526_n; 
          to     T5457014_n; 
          phases CN; 
          configuration SINGLE_PHASE-_10-7200To120V; 
          } 

object node {name   T5457014_n; phases CN; nominal_voltage 120;  } 

object overhead_line {
          name   span_34528; 
          from   T5457014_n; 
          to     span_34528_n; 
          phases CN; 
          length 84.90123; 
          configuration SystemCnstDefaultCN__1/0 Triplex; 
          } 

object node {name   span_34528_n; phases CN; nominal_voltage 120;  } 

object overhead_line {
          name   span_34529; 
          from   span_34532_n; 
          to     span_34529_n; 
          phases CN; 
          length 62.275005; 
          configuration SystemCnstDefaultCN__4 AC; 
          } 

object node {name   span_34529_n; phases CN; nominal_voltage 7200;  } 

object overhead_line {
          name   span_55538; 
          from   span_34529_n; 
          to     span_55538_n; 
          phases CN; 
          length 367; 
          configuration SystemCnstDefaultCN__4 AC; 
          } 

object node {name   span_55538_n; phases CN; nominal_voltage 7200;  } 

object node {name   fake_g_18_n; parent span_55538_n; phases ACN; nominal_voltage 7200;  } 

object transformer {
          name   T5457067; 
          from   span_34529_n; 
          to     T5457067_n; 
          phases CN; 
          configuration SINGLE_PHASE-_10-7200To120V; 
          } 

object node {name   T5457067_n; phases CN; nominal_voltage 120;  } 

object overhead_line {
          name   span_34531; 
          from   T5457067_n; 
          to     span_34531_n; 
          phases CN; 
          length 60.716595; 
          configuration SystemCnstDefaultCN__1/0 Triplex; 
          } 

object node {name   span_34531_n; phases CN; nominal_voltage 120;  } 

object transformer {
          name   T5457038; 
          from   span_34538_n; 
          to     T5457038_n; 
          phases CN; 
          configuration SINGLE_PHASE-_25-7200To120V; 
          } 

object node {name   T5457038_n; phases CN; nominal_voltage 120;  } 

object overhead_line {
          name   span_34536; 
          from   T5457038_n; 
          to     span_34536_n; 
          phases CN; 
          length 133.34142; 
          configuration SystemCnstDefaultCN__1/0 Triplex; 
          } 

object node {name   span_34536_n; phases CN; nominal_voltage 120;  } 

object overhead_line {
          name   span_34535; 
          from   T5457038_n; 
          to     span_34535_n; 
          phases CN; 
          length 143.88823; 
          configuration SystemCnstDefaultCN__1/0 Triplex; 
          } 

object node {name   span_34535_n; phases CN; nominal_voltage 120;  } 

object overhead_line {
          name   span_34534; 
          from   T5457038_n; 
          to     span_34534_n; 
          phases CN; 
          length 68.558693; 
          configuration SystemCnstDefaultCN__1/0 Triplex; 
          } 

object node {name   span_34534_n; phases CN; nominal_voltage 120;  } 

object overhead_line {
          name   span_34533; 
          from   T5457038_n; 
          to     span_34533_n; 
          phases CN; 
          length 58.446281; 
          configuration SystemCnstDefaultCN__1/0 Triplex; 
          } 

object node {name   span_34533_n; phases CN; nominal_voltage 120;  } 

object transformer {
          name   T5457036; 
          from   span_34537_n; 
          to     T5457036_n; 
          phases CN; 
          configuration SINGLE_PHASE-_5-7200To120V; 
          } 

object node {name   T5457036_n; phases CN; nominal_voltage 120;  } 

object overhead_line {
          name   span_34539; 
          from   T5457036_n; 
          to     span_34539_n; 
          phases CN; 
          length 66.155396; 
          configuration SystemCnstDefaultCN__1/0 Triplex; 
          } 

object node {name   span_34539_n; phases CN; nominal_voltage 120;  } 

object overhead_line {
          name   span_48415; 
          from   span_6171_n; 
          to     span_48415_n; 
          phases CN; 
          length 574; 
          configuration SystemCnstDefaultCN__4 AC; 
          } 

object node {name   span_48415_n; phases CN; nominal_voltage 7200;  } 

object overhead_line {
          name   span_48416; 
          from   span_48415_n; 
          to     span_48416_n; 
          phases CN; 
          length 168; 
          configuration SystemCnstDefaultCN__4 AC; 
          } 

object node {name   span_48416_n; phases CN; nominal_voltage 7200;  } 

object overhead_line {
          name   span_34560; 
          from   span_48416_n; 
          to     span_34560_n; 
          phases CN; 
          length 319.70578; 
          configuration SystemCnstDefaultCN__4 AC; 
          } 

object node {name   span_34560_n; phases CN; nominal_voltage 7200;  } 

object overhead_line {
          name   span_52181; 
          from   span_34560_n; 
          to     span_52181_n; 
          phases CN; 
          length 192; 
          configuration SystemCnstDefaultCN__4 AC; 
          } 

object node {name   span_52181_n; phases CN; nominal_voltage 7200;  } 

object transformer {
          name   T5457030; 
          from   span_52181_n; 
          to     T5457030_n; 
          phases CN; 
          configuration SINGLE_PHASE-_10-7200To120V; 
          } 

object node {name   T5457030_n; phases CN; nominal_voltage 120;  } 

object underground_line {
          name   span_55122; 
          from   serv_21065_n; 
          to     span_55122_n; 
          phases CN; 
          length 64; 
          configuration SystemCnstDefaultC__4/0AL UG; 
          } 

object node {name   span_55122_n; phases CN; nominal_voltage 120;  } 

object overhead_line {
          name   span_52185; 
          from   T5457030_n; 
          to     span_52185_n; 
          phases CN; 
          length 69.008507; 
          configuration SystemCnstDefaultCN__#2 Triplex; 
          } 

object node {name   span_52185_n; phases CN; nominal_voltage 120;  } 

object underground_line {
          name   span_52188; 
          from   serv_18416_n; 
          to     span_52188_n; 
          phases CN; 
          length 80.506073; 
          configuration SystemCnstDefaultC__4/0AL UG; 
          } 

object node {name   span_52188_n; phases CN; nominal_voltage 120;  } 

object transformer {
          name   T5457024; 
          from   span_34560_n; 
          to     T5457024_n; 
          phases CN; 
          configuration SINGLE_PHASE-_10-7200To120V; 
          } 

object node {name   T5457024_n; phases CN; nominal_voltage 120;  } 

object overhead_line {
          name   span_48431; 
          from   T5457024_n; 
          to     span_48431_n; 
          phases CN; 
          length 163; 
          configuration SystemCnstDefaultCN__1/0 Triplex; 
          } 

object node {name   span_48431_n; phases CN; nominal_voltage 120;  } 

object underground_line {
          name   span_48434; 
          from   serv_64398_n; 
          to     span_48434_n; 
          phases CN; 
          length 37.340839; 
          configuration SystemCnstDefaultC__4/0AL UG; 
          } 

object node {name   span_48434_n; phases CN; nominal_voltage 120;  } 

object underground_line {
          name   span_48433; 
          from   serv_64397_n; 
          to     span_48433_n; 
          phases CN; 
          length 51.517189; 
          configuration SystemCnstDefaultC__4/0AL UG; 
          } 

object node {name   span_48433_n; phases CN; nominal_voltage 120;  } 

object overhead_line {
          name   span_48428; 
          from   T5457024_n; 
          to     span_48428_n; 
          phases CN; 
          length 142.99466; 
          configuration SystemCnstDefaultCN__1/0 Triplex; 
          } 

object node {name   span_48428_n; phases CN; nominal_voltage 120;  } 

object underground_line {
          name   span_48429; 
          from   serv_17357_n; 
          to     span_48429_n; 
          phases CN; 
          length 74.369278; 
          configuration SystemCnstDefaultC__4/0AL UG; 
          } 

object node {name   span_48429_n; phases CN; nominal_voltage 120;  } 

object underground_line {
          name   span_48430; 
          from   serv_17358_n; 
          to     span_48430_n; 
          phases CN; 
          length 65.605988; 
          configuration SystemCnstDefaultC__4/0AL UG; 
          } 

object node {name   span_48430_n; phases CN; nominal_voltage 120;  } 

object transformer {
          name   T5457001; 
          from   span_48416_n; 
          to     T5457001_n; 
          phases CN; 
          configuration SINGLE_PHASE-_15-7200To120V; 
          } 

object node {name   T5457001_n; phases CN; nominal_voltage 120;  } 

object overhead_line {
          name   span_55497; 
          from   T5457001_n; 
          to     span_55497_n; 
          phases CN; 
          length 135; 
          configuration SystemCnstDefaultCN__1/0 Triplex; 
          } 

object node {name   span_55497_n; phases CN; nominal_voltage 120;  } 

object underground_line {
          name   span_55500; 
          from   serv_21795_n; 
          to     span_55500_n; 
          phases CN; 
          length 111.33882; 
          configuration SystemCnstDefaultC__4/0AL UG; 
          } 

object node {name   span_55500_n; phases CN; nominal_voltage 120;  } 

object underground_line {
          name   span_55501; 
          from   serv_21794_n; 
          to     span_55501_n; 
          phases CN; 
          length 103.44839; 
          configuration SystemCnstDefaultC__4/0AL UG; 
          } 

object node {name   span_55501_n; phases CN; nominal_voltage 120;  } 

object overhead_line {
          name   span_55522; 
          from   T5457001_n; 
          to     span_55522_n; 
          phases CN; 
          length 77; 
          configuration SystemCnstDefaultCN__1/0 Triplex; 
          } 

object node {name   span_55522_n; phases CN; nominal_voltage 120;  } 

object underground_line {
          name   span_55499; 
          from   serv_21215_n; 
          to     span_55499_n; 
          phases CN; 
          length 34.218616; 
          configuration SystemCnstDefaultC__4/0AL UG; 
          } 

object node {name   span_55499_n; phases CN; nominal_voltage 120;  } 

object overhead_line {
          name   span_6066; 
          from   span_48416_n; 
          to     span_6066_n; 
          phases CN; 
          length 271.39304; 
          configuration SystemCnstDefaultCN__4 AC; 
          } 

object fuse {
          name          F54-29-13; 
          from          span_49751_n; 
          to            F54-29-13_n; 
          phases        CN; 
          current_limit 35.655785; 
          mean_replacement_time 1.0 ; 
          repair_dist_type      NONE; 
          } 

object node {name   F54-29-13_n; phases CN; nominal_voltage 7200;  } 

object overhead_line {
          name   span_48404; 
          from   F54-29-13_n; 
          to     span_48404_n; 
          phases CN; 
          length 138; 
          configuration SystemCnstDefaultCN__4 AC; 
          } 

object node {name   span_48404_n; phases CN; nominal_voltage 7200;  } 

object transformer {
          name   T5457049; 
          from   span_48404_n; 
          to     T5457049_n; 
          phases CN; 
          configuration SINGLE_PHASE-_15-7200To120V; 
          } 

object node {name   T5457049_n; phases CN; nominal_voltage 120;  } 

object overhead_line {
          name   span_48407; 
          from   T5457049_n; 
          to     span_48407_n; 
          phases CN; 
          length 131.02718; 
          configuration SystemCnstDefaultCN__1/0 Triplex; 
          } 

object node {name   span_48407_n; phases CN; nominal_voltage 120;  } 

object underground_line {
          name   span_48411; 
          from   serv_17893_n; 
          to     span_48411_n; 
          phases CN; 
          length 69.266762; 
          configuration SystemCnstDefaultC__4/0AL UG; 
          } 

object node {name   span_48411_n; phases CN; nominal_voltage 120;  } 

object underground_line {
          name   span_48410; 
          from   serv_17892_n; 
          to     span_48410_n; 
          phases CN; 
          length 61.881535; 
          configuration SystemCnstDefaultC__4/0AL UG; 
          } 

object node {name   span_48410_n; phases CN; nominal_voltage 120;  } 

object overhead_line {
          name   span_48406; 
          from   T5457049_n; 
          to     span_48406_n; 
          phases CN; 
          length 71.29808; 
          configuration SystemCnstDefaultCN__1/0 Triplex; 
          } 

object node {name   span_48406_n; phases CN; nominal_voltage 120;  } 

object underground_line {
          name   span_48408; 
          from   serv_17894_n; 
          to     span_48408_n; 
          phases CN; 
          length 43.057159; 
          configuration SystemCnstDefaultC__4/0AL UG; 
          } 

object node {name   span_48408_n; phases CN; nominal_voltage 120;  } 

object underground_line {
          name   span_48409; 
          from   serv_17895_n; 
          to     span_48409_n; 
          phases CN; 
          length 48.431622; 
          configuration SystemCnstDefaultC__4/0AL UG; 
          } 

object node {name   span_48409_n; phases CN; nominal_voltage 120;  } 

object overhead_line {
          name   span_48405; 
          from   span_48404_n; 
          to     span_48405_n; 
          phases CN; 
          length 145; 
          configuration SystemCnstDefaultCN__4 AC; 
          } 

object node {name   span_48405_n; phases CN; nominal_voltage 7200;  } 

object transformer {
          name   T5457046; 
          from   span_48405_n; 
          to     T5457046_n; 
          phases CN; 
          configuration SINGLE_PHASE-_10-7200To120V; 
          } 

object node {name   T5457046_n; phases CN; nominal_voltage 120;  } 

object overhead_line {
          name   span_34547; 
          from   T5457046_n; 
          to     span_34547_n; 
          phases CN; 
          length 63.2663; 
          configuration SystemCnstDefaultCN__1/0 Triplex; 
          } 

object node {name   span_34547_n; phases CN; nominal_voltage 120;  } 

object underground_line {
          name   span_48427; 
          from   serv_17896_n; 
          to     span_48427_n; 
          phases CN; 
          length 48.536034; 
          configuration SystemCnstDefaultC__4/0AL UG; 
          } 

object node {name   span_48427_n; phases CN; nominal_voltage 120;  } 

object overhead_line {
          name   span_48423; 
          from   T5457046_n; 
          to     span_48423_n; 
          phases CN; 
          length 96.246841; 
          configuration SystemCnstDefaultCN__1/0 Triplex; 
          } 

object node {name   span_48423_n; phases CN; nominal_voltage 120;  } 

object overhead_line {
          name   span_48424; 
          from   span_48423_n; 
          to     span_48424_n; 
          phases CN; 
          length 89.075615; 
          configuration SystemCnstDefaultCN__1/0 Triplex; 
          } 

object node {name   span_48424_n; phases CN; nominal_voltage 120;  } 

object underground_line {
          name   span_48426; 
          from   serv_17897_n; 
          to     span_48426_n; 
          phases CN; 
          length 52.403812; 
          configuration SystemCnstDefaultC__4/0AL UG; 
          } 

object node {name   span_48426_n; phases CN; nominal_voltage 120;  } 

object underground_line {
          name   span_48425; 
          from   serv_17898_n; 
          to     span_48425_n; 
          phases CN; 
          length 46.16983; 
          configuration SystemCnstDefaultC__4/0AL UG; 
          } 

object node {name   span_48425_n; phases CN; nominal_voltage 120;  } 

object overhead_line {
          name   span_34542; 
          from   span_48405_n; 
          to     span_34542_n; 
          phases CN; 
          length 175.17207; 
          configuration SystemCnstDefaultCN__4 AC; 
          } 

object node {name   span_34542_n; phases CN; nominal_voltage 7200;  } 

object transformer {
          name   T5457034; 
          from   span_34542_n; 
          to     T5457034_n; 
          phases CN; 
          configuration SINGLE_PHASE-_10-7200To120V; 
          } 

object node {name   T5457034_n; phases CN; nominal_voltage 120;  } 

object overhead_line {
          name   span_48412; 
          from   T5457034_n; 
          to     span_48412_n; 
          phases CN; 
          length 68.943794; 
          configuration SystemCnstDefaultCN__#2 Triplex; 
          } 

object node {name   span_48412_n; phases CN; nominal_voltage 120;  } 

object underground_line {
          name   span_48414; 
          from   serv_17900_n; 
          to     span_48414_n; 
          phases CN; 
          length 44.41848; 
          configuration SystemCnstDefaultC__4/0AL UG; 
          } 

object node {name   span_48414_n; phases CN; nominal_voltage 120;  } 

object underground_line {
          name   span_48413; 
          from   serv_17899_n; 
          to     span_48413_n; 
          phases CN; 
          length 58.578251; 
          configuration SystemCnstDefaultC__4/0AL UG; 
          } 

object node {name   span_48413_n; phases CN; nominal_voltage 120;  } 

object overhead_line {
          name   span_34543; 
          from   span_34542_n; 
          to     span_34543_n; 
          phases CN; 
          length 100.72129; 
          configuration SystemCnstDefaultCN__4 AC; 
          } 

object node {name   span_34543_n; phases CN; nominal_voltage 7200;  } 

object overhead_line {
          name   span_6171; 
          from   span_34543_n; 
          to     span_6171_n; 
          phases CN; 
          length 187.38184; 
          configuration SystemCnstDefaultCN__4 AC; 
          } 

object node {name   span_6171_n; phases CN; nominal_voltage 7200;  } 

object transformer {
          name   T5457076; 
          from   span_6171_n; 
          to     T5457076_n; 
          phases CN; 
          configuration SINGLE_PHASE-_10-7200To120V; 
          } 

object node {name   T5457076_n; phases CN; nominal_voltage 120;  } 

object overhead_line {
          name   span_34541; 
          from   T5457076_n; 
          to     span_34541_n; 
          phases CN; 
          length 144.32129; 
          configuration SystemCnstDefaultCN__1/0 Triplex; 
          } 

object node {name   span_34541_n; phases CN; nominal_voltage 120;  } 

object overhead_line {
          name   span_34540; 
          from   T5457076_n; 
          to     span_34540_n; 
          phases CN; 
          length 120.78762; 
          configuration SystemCnstDefaultCN__1/0 Triplex; 
          } 

object node {name   span_34540_n; phases CN; nominal_voltage 120;  } 

object overhead_line {
          name   span_34537; 
          from   span_6171_n; 
          to     span_34537_n; 
          phases CN; 
          length 111.22488; 
          configuration SystemCnstDefaultCN__4 AC; 
          } 

object node {name   span_34537_n; phases CN; nominal_voltage 7200;  } 

object overhead_line {
          name   span_34538; 
          from   span_34537_n; 
          to     span_34538_n; 
          phases CN; 
          length 108.51781; 
          configuration SystemCnstDefaultCN__4 AC; 
          } 

object node {name   span_34538_n; phases CN; nominal_voltage 7200;  } 

object overhead_line {
          name   span_34532; 
          from   span_34538_n; 
          to     span_34532_n; 
          phases CN; 
          length 135.31548; 
          configuration SystemCnstDefaultCN__4 AC; 
          } 

object node {name   span_34532_n; phases CN; nominal_voltage 7200;  } 

object overhead_line {
          name   span_34526; 
          from   span_34532_n; 
          to     span_34526_n; 
          phases CN; 
          length 188.03433; 
          configuration SystemCnstDefaultCN__4 AC; 
          } 

object node {name   span_34526_n; phases CN; nominal_voltage 7200;  } 

object overhead_line {
          name   span_34527; 
          from   span_34526_n; 
          to     span_34527_n; 
          phases CN; 
          length 187.36662; 
          configuration SystemCnstDefaultCN__4 AC; 
          } 

object node {name   span_34527_n; phases CN; nominal_voltage 7200;  } 

object transformer {
          name   T5457022; 
          from   span_34527_n; 
          to     T5457022_n; 
          phases CN; 
          configuration SINGLE_PHASE-_10-7200To120V; 
          } 

object node {name   T5457022_n; phases CN; nominal_voltage 120;  } 

object overhead_line {
          name   span_34525; 
          from   T5457022_n; 
          to     span_34525_n; 
          phases CN; 
          length 121.30097; 
          configuration SystemCnstDefaultCN__1/0 Triplex; 
          } 

object node {name   span_34525_n; phases CN; nominal_voltage 120;  } 

object overhead_line {
          name   span_34524; 
          from   T5457022_n; 
          to     span_34524_n; 
          phases CN; 
          length 71.831322; 
          configuration SystemCnstDefaultCN__1/0 Triplex; 
          } 

object node {name   span_34524_n; phases CN; nominal_voltage 120;  } 

object node {name   PMH54-29-10-A_n; phases ABCN; nominal_voltage 7200;  } 

object switch {
          name   PMH54-29-10-A; 
          from   span_17305_n; 
          to     PMH54-29-10-A_n; 
          phases ABCN; 
          status CLOSED; 
          } 

object underground_line {
          name   span_76367; 
          from   PMH54-29-10-A_n; 
          to     span_76367_n; 
          phases ABCN; 
          length 0.10607042; 
          configuration SystemCnstDefaultABC__1/0 URD; 
          } 

object node {name   span_76367_n; phases ABCN; nominal_voltage 7200;  } 

object fuse {
          name          over_6936; 
          from          span_76367_n; 
          to            over_6936_n; 
          phases        ABCN; 
          current_limit 158.21201; 
          mean_replacement_time 1.0 ; 
          repair_dist_type      NONE; 
          } 

object node {name   over_6936_n; phases ABCN; nominal_voltage 7200;  } 

object underground_line {
          name   span_15685; 
          from   over_6936_n; 
          to     span_15685_n; 
          phases ABCN; 
          length 577.11884; 