///////////////////////////////////////////////////////; 
// This glm created by 'Milsoft to GridLabD Export'. //; 
//             Wed May 21 16:25:05 2014              //; 
///////////////////////////////////////////////////////; 

clock { timestamp '2000-01-01 00:00:00'; } 

module powerflow{ solver_method FBS; } 
// Note: Number Of Looped Switches in WindMil = 0 

object node {
          name            SUB 7; 
          phases          ABCN; 
          bustype         PQ; 
          voltage_A       +7200+0j; 
          voltage_B       -3600-6235.3828j; 
          voltage_C       -3600+6235.3828j; 
          nominal_voltage 7200; 
          } 

object recloser {
          name                PA Ckt 1; 
          from                SUB 7; 
          to                  PA Ckt 1_n; 
          phases              ABCN; 
          max_number_of_tries 2; 
          } 

object node {name   PA Ckt 1_n; phases ABCN; nominal_voltage 7200;  } 

object underground_line {
          name   span_20981; 
          from   PA Ckt 1_n; 
          to     span_20981_n; 
          phases ABCN; 
          length 418.85327; 
          configuration SystemCnstDefaultABC__4/0 URD; 
          } 

object node {name   span_20981_n; phases ABCN; nominal_voltage 7200;  } 

object underground_line {
          name   span_20980; 
          from   span_20981_n; 
          to     span_20980_n; 
          phases ABCN; 
          length 22.828205; 
          configuration SystemCnstDefaultABC__4/0 URD; 
          } 

object node {name   span_20980_n; phases ABCN; nominal_voltage 7200;  } 

object underground_line {
          name   span_15026; 
          from   span_20980_n; 
          to     span_15026_n; 
          phases ABCN; 
          length 195.58389; 
          configuration SystemCnstDefaultABC__1/0 URD; 
          } 

object node {name   span_15026_n; phases ABCN; nominal_voltage 7200;  } 

object transformer {
          name   T1852026; 
          from   span_15026_n; 
          to     T1852026_n; 
          phases ABCN; 
          configuration WYE_WYE-_75x3-7200To120V; 
          } 

object node {name   T1852026_n; phases ABCN; nominal_voltage 120;  } 

object underground_line {
          name   span_24106; 
          from   T1852026_n; 
          to     span_24106_n; 
          phases ABCN; 
          length 115.40722; 
          configuration SystemCnstDefaultABC__1/0AL UD; 
          } 

object node {name   span_24106_n; phases ABCN; nominal_voltage 120;  } 

object underground_line {
          name   span_20013; 
          from   span_20980_n; 
          to     span_20013_n; 
          phases ABCN; 
          length 492.77646; 
          configuration SystemCnstDefaultABC__4/0 URD; 
          } 

object node {name   span_20013_n; phases ABCN; nominal_voltage 7200;  } 

object underground_line {
          name   span_20983; 
          from   span_20013_n; 
          to     span_20983_n; 
          phases ABCN; 
          length 662.51971; 
          configuration SystemCnstDefaultABC__4/0 URD; 
          } 

object node {name   span_20983_n; phases ABCN; nominal_voltage 7200;  } 

object underground_line {
          name   span_20012; 
          from   span_20983_n; 
          to     span_20012_n; 
          phases ABCN; 
          length 858.02759; 
          configuration SystemCnstDefaultABC__4/0 URD; 
          } 

object node {name   span_20012_n; phases ABCN; nominal_voltage 7200;  } 

object underground_line {
          name   span_49044; 
          from   span_20012_n; 
          to     span_49044_n; 
          phases ABCN; 
          length 1179; 
          configuration SystemCnstDefaultABC__4/0 URD; 
          } 

object node {name   span_49044_n; phases ABCN; nominal_voltage 7200;  } 

object underground_line {
          name   span_49045; 
          from   span_49044_n; 
          to     span_49045_n; 
          phases ABCN; 
          length 31; 
          configuration SystemCnstDefaultABC__4/0 URD; 
          } 

object node {name   span_49045_n; phases ABCN; nominal_voltage 7200;  } 

object underground_line {
          name   span_46305; 
          from   span_49045_n; 
          to     span_46305_n; 
          phases ABCN; 
          length 953; 
          configuration SystemCnstDefaultABC__4/0 URD; 
          } 

object node {name   span_46305_n; phases ABCN; nominal_voltage 7200;  } 

object underground_line {
          name   span_46306; 
          from   span_46305_n; 
          to     span_46306_n; 
          phases ABCN; 
          length 701; 
          configuration SystemCnstDefaultABC__4/0 URD; 
          } 

object node {name   span_46306_n; phases ABCN; nominal_voltage 7200;  } 

object underground_line {
          name   span_21072; 
          from   span_46306_n; 
          to     span_21072_n; 
          phases ABCN; 
          length 1167.3745; 
          configuration SystemCnstDefaultABC__4/0 URD; 
          } 

object node {name   span_21072_n; phases ABCN; nominal_voltage 7200;  } 

object underground_line {
          name   span_20006; 
          from   span_21072_n; 
          to     span_20006_n; 
          phases ABCN; 
          length 2125.5864; 
          configuration SystemCnstDefaultABC__4/0 URD; 
          } 

object node {name   span_20006_n; phases ABCN; nominal_voltage 7200;  } 

object underground_line {
          name   span_20976; 
          from   span_20006_n; 
          to     span_20976_n; 
          phases ABCN; 
          length 483.62695; 
          configuration SystemCnstDefaultABC__4/0 URD; 
          } 

object node {name   span_20976_n; phases ABCN; nominal_voltage 7200;  } 

object underground_line {
          name   span_49091; 
          from   span_20976_n; 
          to     span_49091_n; 
          phases ABCN; 
          length 27; 
          configuration SystemCnstDefaultABC__4/0 URD; 
          } 

object node {name   span_49091_n; phases ABCN; nominal_voltage 7200;  } 

object underground_line {
          name   span_49092; 
          from   span_49091_n; 
          to     span_49092_n; 
          phases ABCN; 
          length 2571; 
          configuration SystemCnstDefaultABC__4/0 URD; 
          } 

object node {name   span_49092_n; phases ABCN; nominal_voltage 7200;  } 

object underground_line {
          name   span_20004; 
          from   span_49092_n; 
          to     span_20004_n; 
          phases ABCN; 
          length 1472.3842; 
          configuration SystemCnstDefaultABC__4/0 URD; 
          } 

object node {name   span_20004_n; phases ABCN; nominal_voltage 7200;  } 

object underground_line {
          name   span_20973; 
          from   span_20004_n; 
          to     span_20973_n; 
          phases ABCN; 
          length 1155.5297; 
          configuration SystemCnstDefaultABC__4/0 URD; 
          } 

object node {name   span_20973_n; phases ABCN; nominal_voltage 7200;  } 

object underground_line {
          name   span_51415; 
          from   R27-15-9_n; 
          to     span_51415_n; 
          phases CN; 
          length 1321; 
          configuration SystemCnstDefaultC__1/0 URD; 
          } 

object node {name   span_51415_n; phases CN; nominal_voltage 7200;  } 

object underground_line {
          name   span_14725; 
          from   span_51415_n; 
          to     span_14725_n; 
          phases CN; 
          length 341.14322; 
          configuration SystemCnstDefaultC__1/0 URD; 
          } 

object node {name   span_14725_n; phases CN; nominal_voltage 7200;  } 

object transformer {
          name   T2715003; 
          from   span_14725_n; 
          to     T2715003_n; 
          phases CN; 
          configuration SINGLE_PHASE-_15-7200To120V; 
          } 

object node {name   T2715003_n; phases CN; nominal_voltage 120;  } 

object underground_line {
          name   span_24459; 
          from   T2715003_n; 
          to     span_24459_n; 
          phases CN; 
          length 177.53679; 
          configuration SystemCnstDefaultC__1/0AL UD; 
          } 

object node {name   span_24459_n; phases CN; nominal_voltage 120;  } 

object underground_line {
          name   span_20000; 
          from   span_51415_n; 
          to     span_20000_n; 
          phases CN; 
          length 1390.4489; 
          configuration SystemCnstDefaultC__1/0 URD; 
          } 

object node {name   span_20000_n; phases CN; nominal_voltage 7200;  } 

object underground_line {
          name   span_15679; 
          from   span_20000_n; 
          to     span_15679_n; 
          phases CN; 
          length 318.62137; 
          configuration SystemCnstDefaultC__1/0 URD; 
          } 

object node {name   span_15679_n; phases CN; nominal_voltage 7200;  } 

object transformer {
          name   T2715002; 
          from   span_15679_n; 
          to     T2715002_n; 
          phases CN; 
          configuration SINGLE_PHASE-_15-7200To120V; 
          } 

object node {name   T2715002_n; phases CN; nominal_voltage 120;  } 

object underground_line {
          name   span_26750; 
          from   T2715002_n; 
          to     span_26750_n; 
          phases CN; 
          length 90.933487; 
          configuration SystemCnstDefaultC__4/0AL UG; 
          } 

object node {name   span_26750_n; phases CN; nominal_voltage 120;  } 

object underground_line {
          name   span_19991; 
          from   span_20000_n; 
          to     span_19991_n; 
          phases CN; 
          length 415.42184; 
          configuration SystemCnstDefaultC__1/0 URD; 
          } 

object node {name   span_19991_n; phases CN; nominal_voltage 7200;  } 

object underground_line {
          name   span_50519; 
          from   span_19991_n; 
          to     span_50519_n; 
          phases CN; 
          length 132; 
          configuration SystemCnstDefaultC__1/0 URD; 
          } 

object node {name   span_50519_n; phases CN; nominal_voltage 7200;  } 

object underground_line {
          name   span_51497; 
          from   span_50519_n; 
          to     span_51497_n; 
          phases CN; 
          length 5; 
          configuration SystemCnstDefaultC__1/0 URD; 
          } 

object node {name   span_51497_n; phases CN; nominal_voltage 7200;  } 

object transformer {
          name   T2715005; 
          from   span_51497_n; 
          to     T2715005_n; 
          phases CN; 
          configuration SINGLE_PHASE-_15-7200To120V; 
          } 

object node {name   T2715005_n; phases CN; nominal_voltage 120;  } 

object underground_line {
          name   span_51496; 
          from   serv_17862_n; 
          to     span_51496_n; 
          phases CN; 
          length 53; 
          configuration SystemCnstDefaultC__4/0AL UG; 
          } 

object node {name   span_51496_n; phases CN; nominal_voltage 120;  } 

object underground_line {
          name   span_50520; 
          from   span_50519_n; 
          to     span_50520_n; 
          phases CN; 
          length 1986; 
          configuration SystemCnstDefaultC__1/0 URD; 
          } 

object node {name   span_50520_n; phases CN; nominal_voltage 7200;  } 

object underground_line {
          name   span_46312; 
          from   span_50520_n; 
          to     span_46312_n; 
          phases CN; 
          length 284; 
          configuration SystemCnstDefaultC__1/0 URD; 
          } 

object node {name   span_46312_n; phases CN; nominal_voltage 7200;  } 

object transformer {
          name   T2752068; 
          from   span_46312_n; 
          to     T2752068_n; 
          phases CN; 
          configuration SINGLE_PHASE-_15-7200To120V; 
          } 

object node {name   T2752068_n; phases CN; nominal_voltage 120;  } 

object underground_line {
          name   span_22774; 
          from   T2752068_n; 
          to     span_22774_n; 
          phases CN; 
          length 118.86662; 
          configuration SystemCnstDefaultC__1/0AL UD; 
          } 

object node {name   span_22774_n; phases CN; nominal_voltage 120;  } 

object underground_line {
          name   span_22775; 
          from   T2752068_n; 
          to     span_22775_n; 
          phases CN; 
          length 99.745331; 
          configuration SystemCnstDefaultC__1/0AL UD; 
          } 

object node {name   span_22775_n; phases CN; nominal_voltage 120;  } 

object underground_line {
          name   span_16409; 
          from   span_46312_n; 
          to     span_16409_n; 
          phases CN; 
          length 157.36145; 
          configuration SystemCnstDefaultC__1/0 URD; 
          } 

object node {name   span_16409_n; phases CN; nominal_voltage 7200;  } 

object transformer {
          name   T2753076; 
          from   span_16409_n; 
          to     T2753076_n; 
          phases CN; 
          configuration SINGLE_PHASE-_15-7200000To120000V; 
          } 

object transformer {
          name   T2751024; 
          from   span_27741_n; 
          to     T2751024_n; 
          phases BN; 
          configuration SINGLE_PHASE-_10-7200To120V; 
          } 

object node {name   T2751024_n; phases BN; nominal_voltage 120;  } 

object overhead_line {
          name   span_12654; 
          from   T2751024_n; 
          to     span_12654_n; 
          phases BN; 
          length 412.12714; 
          configuration SystemCnstDefaultBN__1/0 Triplex; 
          } 

object node {name   span_12654_n; phases BN; nominal_voltage 120;  } 

object overhead_line {
          name   span_12652; 
          from   T2751024_n; 
          to     span_12652_n; 
          phases BN; 
          length 427.80521; 
          configuration SystemCnstDefaultBN__1/0 Triplex; 
          } 

object node {name   span_12652_n; phases BN; nominal_voltage 120;  } 

object overhead_line {
          name   span_12653; 
          from   T2751024_n; 
          to     span_12653_n; 
          phases BN; 
          length 528.03455; 
          configuration SystemCnstDefaultBN__1/0 Triplex; 
          } 

object node {name   span_12653_n; phases BN; nominal_voltage 120;  } 

object transformer {
          name   T2751023; 
          from   span_27740_n; 
          to     T2751023_n; 
          phases BN; 
          configuration SINGLE_PHASE-_37_D3_5-7200To120V; 
          } 

object node {name   T2751023_n; phases BN; nominal_voltage 120;  } 

object overhead_line {
          name   span_27742; 
          from   T2751023_n; 
          to     span_27742_n; 
          phases BN; 
          length 217.46658; 
          configuration SystemCnstDefaultBN__1/0 Triplex; 
          } 

object node {name   span_27742_n; phases BN; nominal_voltage 120;  } 

object overhead_line {
          name   span_8724; 
          from   span_46274_n; 
          to     span_8724_n; 
          phases ABCN; 
          length 305.34949; 
          configuration SystemCnstDefaultABCN__1/0 AC; 
          } 

object node {name   span_8724_n; phases ABCN; nominal_voltage 7200;  } 

object overhead_line {
          name   span_8723; 
          from   span_8724_n; 
          to     span_8723_n; 
          phases ABCN; 
          length 134.52655; 
          configuration SystemCnstDefaultABCN__1/0 AC; 
          } 

object node {name   span_8723_n; phases ABCN; nominal_voltage 7200;  } 

object fuse {
          name          F27-14-16; 
          from          span_8723_n; 
          to            F27-14-16_n; 
          phases        AN; 
          current_limit 45.00544; 
          mean_replacement_time 1.0 ; 
          repair_dist_type      NONE; 
          } 

object node {name   F27-14-16_n; phases AN; nominal_voltage 7200;  } 

object underground_line {
          name   span_17325; 
          from   F27-14-16_n; 
          to     span_17325_n; 
          phases AN; 
          length 285.77039; 
          configuration SystemCnstDefaultA__1/0 URD; 
          } 

object node {name   span_17325_n; phases AN; nominal_voltage 7200;  } 

object transformer {
          name   T2751043; 
          from   span_17325_n; 
          to     T2751043_n; 
          phases AN; 
          configuration SINGLE_PHASE-_15-7200To120V; 
          } 

object node {name   T2751043_n; phases AN; nominal_voltage 120;  } 

object underground_line {
          name   span_27893; 
          from   T2751043_n; 
          to     span_27893_n; 
          phases AN; 
          length 60.332039; 
          configuration SystemCnstDefaultA__4/0AL UG; 
          } 

object node {name   span_27893_n; phases AN; nominal_voltage 120;  } 

object transformer {
          name   T2751007; 
          from   span_8723_n; 
          to     T2751007_n; 
          phases CN; 
          configuration SINGLE_PHASE-_10-7200To120V; 
          } 

object node {name   T2751007_n; phases CN; nominal_voltage 120;  } 

object overhead_line {
          name   span_27731; 
          from   T2751007_n; 
          to     span_27731_n; 
          phases CN; 
          length 93.673073; 
          configuration SystemCnstDefaultCN__1/0 Triplex; 
          } 

object node {name   span_27731_n; phases CN; nominal_voltage 120;  } 

object transformer {
          name   T2751045; 
          from   span_46274_n; 
          to     T2751045_n; 
          phases CN; 
          configuration SINGLE_PHASE-_15-7200000To120000V; 
          } 

object node {name   T2751045_n; phases CN; nominal_voltage 120000;  } 

object overhead_line {
          name   span_46275; 
          from   T2751045_n; 
          to     span_46275_n; 
          phases CN; 
          length 46.898632; 
          configuration SystemCnstDefaultCN__1/0 Triplex; 
          } 

object node {name   span_46275_n; phases CN; nominal_voltage 120000;  } 

object underground_line {
          name   span_14529; 
          from   span_19996_n; 
          to     span_14529_n; 
          phases BN; 
          length 208.94899; 
          configuration SystemCnstDefaultB__1/0 URD; 
          } 

object node {name   span_14529_n; phases BN; nominal_voltage 7200;  } 

object transformer {
          name   T2751036; 
          from   span_14529_n; 
          to     T2751036_n; 
          phases BN; 
          configuration SINGLE_PHASE-_10-7200To120V; 
          } 

object node {name   T2751036_n; phases BN; nominal_voltage 120;  } 

object underground_line {
          name   span_27892; 
          from   serv_16869_n; 
          to     span_27892_n; 
          phases BN; 
          length 85.923927; 
          configuration SystemCnstDefaultB__4/0AL UG; 
          } 

object node {name   span_27892_n; phases BN; nominal_voltage 120;  } 

object underground_line {
          name   span_27891; 
          from   serv_16868_n; 
          to     span_27891_n; 
          phases BN; 
          length 76.990135; 
          configuration SystemCnstDefaultB__4/0AL UG; 
          } 

object node {name   span_27891_n; phases BN; nominal_voltage 120;  } 

object underground_line {
          name   span_14599; 
          from   span_49053_n; 
          to     span_14599_n; 
          phases BN; 
          length 143.806; 
          configuration SystemCnstDefaultB__4/0 URD; 
          } 

object node {name   span_14599_n; phases BN; nominal_voltage 7200;  } 

object transformer {
          name   T2751039; 
          from   span_14599_n; 
          to     T2751039_n; 
          phases BN; 
          configuration SINGLE_PHASE-_15-7200To120V; 
          } 

object node {name   T2751039_n; phases BN; nominal_voltage 120;  } 

object underground_line {
          name   span_27890; 
          from   T2751039_n; 
          to     span_27890_n; 
          phases BN; 
          length 83.757011; 
          configuration SystemCnstDefaultB__4/0AL UG; 
          } 

object node {name   span_27890_n; phases BN; nominal_voltage 120;  } 

object underground_line {
          name   span_27889; 
          from   T2751039_n; 
          to     span_27889_n; 
          phases BN; 
          length 85.465584; 
          configuration SystemCnstDefaultB__4/0AL UG; 
          } 

object node {name   span_27889_n; phases BN; nominal_voltage 120;  } 

object underground_line {
          name   span_14528; 
          from   span_19998_n; 
          to     span_14528_n; 
          phases CN; 
          length 125.40921; 
          configuration SystemCnstDefaultC__4/0 URD; 
          } 

object node {name   span_14528_n; phases CN; nominal_voltage 7200;  } 

object transformer {
          name   T2751033; 
          from   span_14528_n; 
          to     T2751033_n; 
          phases CN; 
          configuration SINGLE_PHASE-_15-7200To120V; 
          } 

object node {name   T2751033_n; phases CN; nominal_voltage 120;  } 

object underground_line {
          name   span_27888; 
          from   T2751033_n; 
          to     span_27888_n; 
          phases CN; 
          length 68.491737; 
          configuration SystemCnstDefaultC__4/0AL UG; 
          } 

object node {name   span_27888_n; phases CN; nominal_voltage 120;  } 

object underground_line {
          name   span_14527; 
          from   span_19999_n; 
          to     span_14527_n; 
          phases CN; 
          length 114.57053; 
          configuration SystemCnstDefaultC__4/0 URD; 
          } 

object node {name   span_14527_n; phases CN; nominal_voltage 7200;  } 

object transformer {
          name   T2751038; 
          from   span_14527_n; 
          to     T2751038_n; 
          phases CN; 
          configuration SINGLE_PHASE-_15-7200To120V; 
          } 

object node {name   T2751038_n; phases CN; nominal_voltage 120;  } 

object underground_line {
          name   span_27887; 
          from   T2751038_n; 
          to     span_27887_n; 
          phases CN; 
          length 75.529037; 
          configuration SystemCnstDefaultC__4/0AL UG; 
          } 

object node {name   span_27887_n; phases CN; nominal_voltage 120;  } 

object underground_line {
          name   span_27886; 
          from   T2751038_n; 
          to     span_27886_n; 
          phases CN; 
          length 79.892479; 
          configuration SystemCnstDefaultC__4/0AL UG; 
          } 

object node {name   span_27886_n; phases CN; nominal_voltage 120;  } 

object transformer {
          name   T2751031; 
          from   span_46298_n; 
          to     T2751031_n; 
          phases BN; 
          configuration SINGLE_PHASE-_15-7200000To120000V; 
          } 

object node {name   T2751031_n; phases BN; nominal_voltage 120000;  } 

object underground_line {
          name   span_46299; 
          from   T2751031_n; 
          to     span_46299_n; 
          phases BN; 
          length 68.585823; 
          configuration SystemCnstDefaultB__4/0AL UG; 
          } 

object node {name   span_46299_n; phases BN; nominal_voltage 120000;  } 

object underground_line {
          name   span_51414; 
          from   span_46298_n; 
          to     span_51414_n; 
          phases CN; 
          length 26; 
          configuration SystemCnstDefaultC__1/0 URD; 
          } 

object node {name   span_51414_n; phases CN; nominal_voltage 7200;  } 

object recloser {
          name                R27-15-9; 
          from                span_51414_n; 
          to                  R27-15-9_n; 
          phases              CN; 
          max_number_of_tries 4; 
          } 

object node {name   R27-15-9_n; phases CN; nominal_voltage 7200;  } 

object overhead_line {
          name   span_27733; 
          from   T2751009_n; 
          to     span_27733_n; 
          phases BN; 
          length 166.90617; 
          configuration SystemCnstDefaultBN__1/0 Triplex; 
          } 

object node {name   span_27733_n; phases BN; nominal_voltage 120;  } 

object overhead_line {
          name   span_27734; 
          from   span_27732_n; 
          to     span_27734_n; 
          phases BN; 
          length 252.37828; 
          configuration SystemCnstDefaultBN__4 AC; 
          } 

object node {name   span_27734_n; phases BN; nominal_voltage 7200;  } 

object transformer {
          name   T2751034; 
          from   span_27734_n; 
          to     T2751034_n; 
          phases BN; 
          configuration SINGLE_PHASE--7200To120V; 
          } 

object node {name   T2751034_n; phases BN; nominal_voltage 120;  } 

object overhead_line {
          name   span_27735; 
          from   T2751034_n; 
          to     span_27735_n; 
          phases BN; 
          length 140.16533; 
          configuration SystemCnstDefaultBN__1/0 Triplex; 
          } 

object node {name   span_27735_n; phases BN; nominal_voltage 120;  } 

object overhead_line {
          name   span_27736; 
          from   span_27734_n; 
          to     span_27736_n; 
          phases BN; 
          length 180.33414; 
          configuration SystemCnstDefaultBN__4 AC; 
          } 

object node {name   span_27736_n; phases BN; nominal_voltage 7200;  } 

object transformer {
          name   T2751003; 
          from   span_27736_n; 
          to     T2751003_n; 
          phases BN; 
          configuration SINGLE_PHASE-_10-7200To120V; 
          } 

object node {name   T2751003_n; phases BN; nominal_voltage 120;  } 

object overhead_line {
          name   span_27737; 
          from   T2751003_n; 
          to     span_27737_n; 
          phases BN; 
          length 118.97215; 
          configuration SystemCnstDefaultBN__1/0 Triplex; 
          } 

object node {name   span_27737_n; phases BN; nominal_voltage 120;  } 

object overhead_line {
          name   span_27738; 
          from   span_27736_n; 
          to     span_27738_n; 
          phases BN; 
          length 162.93445; 
          configuration SystemCnstDefaultBN__4 AC; 
          } 

object node {name   span_27738_n; phases BN; nominal_voltage 7200;  } 

object transformer {
          name   T2751004; 
          from   span_27738_n; 
          to     T2751004_n; 
          phases BN; 
          configuration SINGLE_PHASE-_15-7200To120V; 
          } 

object node {name   T2751004_n; phases BN; nominal_voltage 120;  } 

object overhead_line {
          name   span_50453; 
          from   T2751004_n; 
          to     span_50453_n; 
          phases BN; 
          length 61; 
          configuration SystemCnstDefaultBN__1/0 Triplex; 
          } 

object node {name   span_50453_n; phases BN; nominal_voltage 120;  } 

object underground_line {
          name   span_50454; 
          from   serv_64631_n; 
          to     span_50454_n; 
          phases BN; 
          length 46.984295; 
          configuration SystemCnstDefaultB__4/0AL UG; 
          } 

object node {name   span_50454_n; phases BN; nominal_voltage 120;  } 

object overhead_line {
          name   span_27740; 
          from   span_27738_n; 
          to     span_27740_n; 
          phases BN; 
          length 325.0065; 
          configuration SystemCnstDefaultBN__4 AC; 
          } 

object node {name   span_27740_n; phases BN; nominal_voltage 7200;  } 

object overhead_line {
          name   span_27741; 
          from   span_27740_n; 
          to     span_27741_n; 
          phases BN; 
          length 189.10872; 
          configuration SystemCnstDefaultBN__4 AC; 
          } 

object node {name   span_27741_n; phases BN; nominal_voltage 7200;  } 

object overhead_line {
          name   span_6169; 
          from   span_27741_n; 
          to     span_6169_n; 
          phases BN; 
          length 378.57654; 
          configuration SystemCnstDefaultBN__4 AC; 
          } 

object node {name   span_6169_n; phases BN; nominal_voltage 7200;  } 

object fuse {
          name          F27-14-20; 
          from          span_6169_n; 
          to            F27-14-20_n; 
          phases        BN; 
          current_limit 19.168053; 
          mean_replacement_time 1.0 ; 
          repair_dist_type      NONE; 
          } 

object node {name   F27-14-20_n; phases BN; nominal_voltage 7200;  } 

object underground_line {
          name   span_17799; 
          from   F27-14-20_n; 
          to     span_17799_n; 
          phases BN; 
          length 294.31747; 
          configuration SystemCnstDefaultB__1/0 URD; 
          } 

object node {name   span_17799_n; phases BN; nominal_voltage 7200;  } 

object transformer {
          name   T2751053; 
          from   span_17799_n; 
          to     T2751053_n; 
          phases BN; 
          configuration SINGLE_PHASE-_15-7200To120V; 
          } 

object node {name   T2751053_n; phases BN; nominal_voltage 120;  } 

object underground_line {
          name   span_22228; 
          from   T2751053_n; 
          to     span_22228_n; 
          phases BN; 
          length 77.228569; 
          configuration SystemCnstDefaultB__1/0AL UD; 
          } 

object node {name   span_22228_n; phases BN; nominal_voltage 120;  } 

object overhead_line {
          name   span_5458; 
          from   span_6169_n; 
          to     span_5458_n; 
          phases BN; 
          length 205.27039; 
          configuration SystemCnstDefaultBN__4 AC; 
          } 

object node {name   span_5458_n; phases BN; nominal_voltage 7200;  } 

object overhead_line {
          name   span_27743; 
          from   span_5458_n; 
          to     span_27743_n; 