///////////////////////////////////////////////////////; 
// This glm created by 'Milsoft to GridLabD Export'. //; 
//             Wed May 21 16:25:09 2014              //; 
///////////////////////////////////////////////////////; 

clock { timestamp '2000-01-01 00:00:00'; } 

module powerflow{ solver_method FBS; } 
// Note: Number Of Looped Switches in WindMil = 0 

object node {
          name            SUB 8; 
          phases          ABCN; 
          bustype         PQ; 
          voltage_A       +7200+0j; 
          voltage_B       -3600-6235.3828j; 
          voltage_C       -3600+6235.3828j; 
          nominal_voltage 7200; 
          } 

object node {name   span_6146_n; phases ABCN; nominal_voltage 7200;  } 

object overhead_line {
          name   span_6146; 
          from   span_7987_n; 
          to     span_6146_n; 
          phases ABCN; 
          length 368.39987; 
          configuration SystemCnstDefaultABCN__1/0 AC; 
          } 

object node {name   span_7987_n; phases ABCN; nominal_voltage 7200;  } 

object overhead_line {
          name   span_7987; 
          from   span_7986_n; 
          to     span_7987_n; 
          phases ABCN; 
          length 528.84186; 
          configuration SystemCnstDefaultABCN__1/0 AC; 
          } 

object node {name   span_7986_n; phases ABCN; nominal_voltage 7200;  } 

object overhead_line {
          name   span_7986; 
          from   span_3941_n; 
          to     span_7986_n; 
          phases ABCN; 
          length 46.427109; 
          configuration SystemCnstDefaultABCN__1/0 AC; 
          } 

object node {name   span_24605_n; phases AN; nominal_voltage 120;  } 

object overhead_line {
          name   span_24605; 
          from   T3960013_n; 
          to     span_24605_n; 
          phases AN; 
          length 28.924055; 
          configuration SystemCnstDefaultAN__1/0 Triplex; 
          } 

object node {name   T3960013_n; phases AN; nominal_voltage 120;  } 

object transformer {
          name   T3960013; 
          from   span_216_n; 
          to     T3960013_n; 
          phases AN; 
          configuration SINGLE_PHASE-_10-7200To120V; 
          } 

object node {name   span_216_n; phases AN; nominal_voltage 7200;  } 

object overhead_line {
          name   span_216; 
          from   span_3941_n; 
          to     span_216_n; 
          phases AN; 
          length 291.83664; 
          configuration SystemCnstDefaultAN__1/0 AC; 
          } 

object node {name   span_3941_n; phases ABCN; nominal_voltage 7200;  } 

object overhead_line {
          name   span_3941; 
          from   span_3940_n; 
          to     span_3941_n; 
          phases ABCN; 
          length 1917.2742; 
          configuration SystemCnstDefaultABCN__1/0 AC; 
          } 

object node {name   span_26034_n; phases AN; nominal_voltage 120;  } 

object overhead_line {
          name   span_26034; 
          from   span_12802_n; 
          to     span_26034_n; 
          phases AN; 
          length 45.964512; 
          configuration SystemCnstDefaultAN__1/0 Triplex; 
          } 

object node {name   span_12802_n; phases AN; nominal_voltage 120;  } 

object overhead_line {
          name   span_12802; 
          from   T3960003_n; 
          to     span_12802_n; 
          phases AN; 
          length 79.654266; 
          configuration SystemCnstDefaultAN__1/0 Triplex; 
          } 

object node {name   span_26033_n; phases AN; nominal_voltage 120;  } 

object overhead_line {
          name   span_26033; 
          from   span_12801_n; 
          to     span_26033_n; 
          phases AN; 
          length 53.374725; 
          configuration SystemCnstDefaultAN__1/0 Triplex; 
          } 

object node {name   span_12801_n; phases AN; nominal_voltage 120;  } 

object overhead_line {
          name   span_12801; 
          from   T3960003_n; 
          to     span_12801_n; 
          phases AN; 
          length 156.67516; 
          configuration SystemCnstDefaultAN__1/0 Triplex; 
          } 

object node {name   T3960003_n; phases AN; nominal_voltage 120;  } 

object transformer {
          name   T3960003; 
          from   span_7989_n; 
          to     T3960003_n; 
          phases AN; 
          configuration SINGLE_PHASE-_5-7200To120V; 
          } 

object node {name   span_46015_n; phases AN; nominal_voltage 120;  } 

object underground_line {
          name   span_46015; 
          from   T3960023_n; 
          to     span_46015_n; 
          phases AN; 
          length 210.66895; 
          configuration SystemCnstDefaultA__4/0AL UG; 
          } 

object node {name   T3960023_n; phases AN; nominal_voltage 120;  } 

object transformer {
          name   T3960023; 
          from   span_14811_n; 
          to     T3960023_n; 
          phases AN; 
          configuration SINGLE_PHASE-_15-7200To120V; 
          } 

object node {name   span_14811_n; phases AN; nominal_voltage 7200;  } 

object underground_line {
          name   span_14811; 
          from   span_7989_n; 
          to     span_14811_n; 
          phases AN; 
          length 182.96091; 
          configuration SystemCnstDefaultA__1/0 URD; 
          } 

object node {name   span_7989_n; phases AN; nominal_voltage 7200;  } 

object overhead_line {
          name   span_7989; 
          from   span_7988_n; 
          to     span_7989_n; 
          phases AN; 
          length 402.52469; 
          configuration SystemCnstDefaultAN__1/0 AC; 
          } 

object node {name   span_7988_n; phases AN; nominal_voltage 7200;  } 

object overhead_line {
          name   span_7988; 
          from   F39-34-4_n; 
          to     span_7988_n; 
          phases AN; 
          length 200.1275; 
          configuration SystemCnstDefaultAN__1/0 AC; 
          } 

object node {name   F39-34-4_n; phases AN; nominal_voltage 7200;  } 

object fuse {
          name          F39-34-4; 
          from          span_3940_n; 
          to            F39-34-4_n; 
          phases        AN; 
          current_limit 45.00544; 
          mean_replacement_time 1.0 ; 
          repair_dist_type      NONE; 
          } 

object node {name   span_3940_n; phases ABCN; nominal_voltage 7200;  } 

object overhead_line {
          name   span_3940; 
          from   SL CKT 2_n; 
          to     span_3940_n; 
          phases ABCN; 
          length 911.7605; 
          configuration SystemCnstDefaultABCN__1/0 AC; 
          } 

object node {name   SL CKT 2_n; phases ABCN; nominal_voltage 7200;  } 

object recloser {
          name                SL CKT 2; 
          from                SUB 8; 
          to                  SL CKT 2_n; 
          phases              ABCN; 
          max_number_of_tries 0; 
          } 

object underground_line {
          name   span_20647; 
          from   span_20646_n; 
          to     span_20647_n; 
          phases AN; 
          length 92; 
          configuration SystemCnstDefaultA__1/0 URD; 
          } 

object node {name   span_20647_n; phases AN; nominal_voltage 7200;  } 

object node {name   SL39-29-18-A_n; phases AN; nominal_voltage 7200;  } 

object switch {
          name   SL39-29-18-A; 
          from   span_20647_n; 
          to     SL39-29-18-A_n; 
          phases AN; 
          status CLOSED; 
          } 

object overhead_line {
          name   span_31634; 
          from   SL39-29-18-A_n; 
          to     span_31634_n; 
          phases AN; 
          length 358.00885; 
          configuration SystemCnstDefaultAN__4 AC; 
          } 

object node {name   span_31634_n; phases AN; nominal_voltage 7200;  } 

object transformer {
          name   T3965024; 
          from   span_31634_n; 
          to     T3965024_n; 
          phases AN; 
          configuration SINGLE_PHASE--7200To120V; 
          } 

object node {name   T3965024_n; phases AN; nominal_voltage 120;  } 

object overhead_line {
          name   span_31635; 
          from   T3965024_n; 
          to     span_31635_n; 
          phases AN; 
          length 117.10899; 
          configuration SystemCnstDefaultAN__1/0 Triplex; 
          } 

object node {name   span_31635_n; phases AN; nominal_voltage 120;  } 

object overhead_line {
          name   span_31636; 
          from   T3965024_n; 
          to     span_31636_n; 
          phases AN; 
          length 113.21738; 
          configuration SystemCnstDefaultAN__1/0 Triplex; 
          } 

object node {name   span_31636_n; phases AN; nominal_voltage 120;  } 

object overhead_line {
          name   span_31637; 
          from   span_31634_n; 
          to     span_31637_n; 
          phases AN; 
          length 237.09085; 
          configuration SystemCnstDefaultAN__4 AC; 
          } 

object node {name   span_31637_n; phases AN; nominal_voltage 7200;  } 

object transformer {
          name   T3965042; 
          from   span_31637_n; 
          to     T3965042_n; 
          phases AN; 
          configuration SINGLE_PHASE-_15-7200To120V; 
          } 

object node {name   T3965042_n; phases AN; nominal_voltage 120;  } 

object overhead_line {
          name   span_31642; 
          from   T3965042_n; 
          to     span_31642_n; 
          phases AN; 
          length 143.19853; 
          configuration SystemCnstDefaultAN__1/0 Triplex; 
          } 

object node {name   span_31642_n; phases AN; nominal_voltage 120;  } 

object underground_line {
          name   span_51181; 
          from   serv_17415_n; 
          to     span_51181_n; 
          phases AN; 
          length 66.027718; 
          configuration SystemCnstDefaultA__4/0AL UG; 
          } 

object node {name   span_51181_n; phases AN; nominal_voltage 120;  } 

object underground_line {
          name   span_51176; 
          from   serv_17414_n; 
          to     span_51176_n; 
          phases AN; 
          length 44.368973; 
          configuration SystemCnstDefaultA__4/0AL UG; 
          } 

object node {name   span_51176_n; phases AN; nominal_voltage 120;  } 

object overhead_line {
          name   span_31639; 
          from   T3965042_n; 
          to     span_31639_n; 
          phases AN; 
          length 103.04987; 
          configuration SystemCnstDefaultAN__1/0 Triplex; 
          } 

object node {name   span_31639_n; phases AN; nominal_voltage 120;  } 

object underground_line {
          name   span_51175; 
          from   serv_17412_n; 
          to     span_51175_n; 
          phases AN; 
          length 64.270805; 
          configuration SystemCnstDefaultA__4/0AL UG; 
          } 

object node {name   span_51175_n; phases AN; nominal_voltage 120;  } 

object overhead_line {
          name   span_51173; 
          from   span_31639_n; 
          to     span_51173_n; 
          phases AN; 
          length 83.548416; 
          configuration SystemCnstDefaultAN__#2 Triplex; 
          } 

object node {name   span_51173_n; phases AN; nominal_voltage 120;  } 

object underground_line {
          name   span_51174; 
          from   serv_17413_n; 
          to     span_51174_n; 
          phases AN; 
          length 39.903503; 
          configuration SystemCnstDefaultA__4/0AL UG; 
          } 

object node {name   span_51174_n; phases AN; nominal_voltage 120;  } 

object overhead_line {
          name   span_31638; 
          from   span_31637_n; 
          to     span_31638_n; 
          phases AN; 
          length 369.89694; 
          configuration SystemCnstDefaultAN__4 AC; 
          } 

object node {name   span_31638_n; phases AN; nominal_voltage 7200;  } 

object overhead_line {
          name   span_31643; 
          from   span_31638_n; 
          to     span_31643_n; 
          phases AN; 
          length 225.70029; 
          configuration SystemCnstDefaultAN__4 AC; 
          } 

object node {name   span_31643_n; phases AN; nominal_voltage 7200;  } 

object node {name   SL39-29-15-A_n; phases AN; nominal_voltage 7200;  } 

object switch {
          name   SL39-29-15-A; 
          from   span_31643_n; 
          to     SL39-29-15-A_n; 
          phases AN; 
          status CLOSED; 
          } 

object underground_line {
          name   span_59540; 
          from   SL39-29-15-A_n; 
          to     span_59540_n; 
          phases AN; 
          length 31; 
          configuration SystemCnstDefaultA__1/0 URD; 
          } 

object node {name   span_59540_n; phases AN; nominal_voltage 7200;  } 

object underground_line {
          name   span_59541; 
          from   span_59540_n; 
          to     span_59541_n; 
          phases AN; 
          length 309; 
          configuration SystemCnstDefaultA__1/0 URD; 
          } 

object node {name   span_59541_n; phases AN; nominal_voltage 7200;  } 

object node {name   SL39-29-5-A_n; phases AN; nominal_voltage 7200;  } 

object switch {
          name   SL39-29-5-A; 
          from   span_59541_n; 
          to     SL39-29-5-A_n; 
          phases AN; 
          status CLOSED; 
          } 

object overhead_line {
          name   span_31646; 
          from   SL39-29-5-A_n; 
          to     span_31646_n; 
          phases AN; 
          length 317.74142; 
          configuration SystemCnstDefaultAN__1/0 AC; 
          } 

object node {name   span_31646_n; phases AN; nominal_voltage 7200;  } 

object transformer {
          name   T3965030; 
          from   span_31646_n; 
          to     T3965030_n; 
          phases AN; 
          configuration SINGLE_PHASE-_5-7200To120V; 
          } 

object node {name   T3965030_n; phases AN; nominal_voltage 120;  } 

object overhead_line {
          name   span_31648; 
          from   T3965030_n; 
          to     span_31648_n; 
          phases AN; 
          length 75.776207; 
          configuration SystemCnstDefaultAN__1/0 Triplex; 
          } 

object node {name   span_31648_n; phases AN; nominal_voltage 120;  } 

object overhead_line {
          name   span_31647; 
          from   T3965030_n; 
          to     span_31647_n; 
          phases AN; 
          length 57.831047; 
          configuration SystemCnstDefaultAN__1/0 Triplex; 
          } 

object node {name   span_31647_n; phases AN; nominal_voltage 120;  } 

object overhead_line {
          name   span_31649; 
          from   span_31646_n; 
          to     span_31649_n; 
          phases AN; 
          length 159.44966; 
          configuration SystemCnstDefaultAN__1/0 AC; 
          } 

object node {name   span_31649_n; phases AN; nominal_voltage 7200;  } 

object overhead_line {
          name   span_31650; 
          from   span_31649_n; 
          to     span_31650_n; 
          phases AN; 
          length 69.626343; 
          configuration SystemCnstDefaultAN__1/0 AC; 
          } 

object node {name   span_31650_n; phases AN; nominal_voltage 7200;  } 

object underground_line {
          name   span_19751; 
          from   span_31650_n; 
          to     span_19751_n; 
          phases AN; 
          length 131.60886; 
          configuration SystemCnstDefaultA__1/0 URD; 
          } 

object node {name   span_19751_n; phases AN; nominal_voltage 7200;  } 

object underground_line {
          name   span_19752; 
          from   span_19751_n; 
          to     span_19752_n; 
          phases AN; 
          length 827.25885; 
          configuration SystemCnstDefaultA__1/0 URD; 
          } 

object node {name   span_19752_n; phases AN; nominal_voltage 7200;  } 

object underground_line {
          name   span_46538; 
          from   span_19752_n; 
          to     span_46538_n; 
          phases AN; 
          length 371; 
          configuration SystemCnstDefaultA__1/0 URD; 
          } 

object node {name   span_46538_n; phases AN; nominal_voltage 7200;  } 

object transformer {
          name   T3966012; 
          from   span_46538_n; 
          to     T3966012_n; 
          phases AN; 
          configuration SINGLE_PHASE-_150-72000To12000V; 
          } 

object node {name   T3966012_n; phases AN; nominal_voltage 12000;  } 

object underground_line {
          name   span_46541; 
          from   T3966012_n; 
          to     span_46541_n; 
          phases AN; 
          length 198.14821; 
          configuration SystemCnstDefaultA__4/0AL UG; 
          } 

object node {name   span_46541_n; phases AN; nominal_voltage 12000;  } 

object underground_line {
          name   span_46540; 
          from   T3966012_n; 
          to     span_46540_n; 
          phases AN; 
          length 169.88586; 
          configuration SystemCnstDefaultA__4/0AL UG; 
          } 

object node {name   span_46540_n; phases AN; nominal_voltage 12000;  } 

object underground_line {
          name   span_46539; 
          from   span_46538_n; 
          to     span_46539_n; 
          phases AN; 
          length 566; 
          configuration SystemCnstDefaultA__1/0 URD; 
          } 

object node {name   span_46539_n; phases AN; nominal_voltage 7200;  } 

object fuse {
          name          F39-29-4; 
          from          span_46539_n; 
          to            F39-29-4_n; 
          phases        AN; 
          current_limit 26.4849; 
          mean_replacement_time 1.0 ; 
          repair_dist_type      NONE; 
          } 

object node {name   F39-29-4_n; phases AN; nominal_voltage 7200;  } 

object overhead_line {
          name   span_31653; 
          from   F39-29-4_n; 
          to     span_31653_n; 
          phases AN; 
          length 86.886169; 
          configuration SystemCnstDefaultAN__4 AC; 
          } 

object node {name   span_31653_n; phases AN; nominal_voltage 7200;  } 

object overhead_line {
          name   span_31654; 
          from   span_31653_n; 
          to     span_31654_n; 
          phases AN; 
          length 878.19647; 
          configuration SystemCnstDefaultAN__4 AC; 
          } 

object node {name   span_31654_n; phases AN; nominal_voltage 7200;  } 

object overhead_line {
          name   span_4083; 
          from   span_31654_n; 
          to     span_4083_n; 
          phases AN; 
          length 696.98993; 
          configuration SystemCnstDefaultAN__4 AC; 
          } 

object node {name   span_4083_n; phases AN; nominal_voltage 7200;  } 

object overhead_line {
          name   span_969; 
          from   span_4083_n; 
          to     span_969_n; 
          phases AN; 
          length 425.87488; 
          configuration SystemCnstDefaultAN__4 AC; 
          } 

object node {name   span_969_n; phases AN; nominal_voltage 7200;  } 

object transformer {
          name   tran_1177; 
          from   span_969_n; 
          to     tran_1177_n; 
          phases AN; 
          configuration SINGLE_PHASE-_10-7200To120V; 
          } 

object node {name   tran_1177_n; phases AN; nominal_voltage 120;  } 

object overhead_line {
          name   span_25908; 
          from   tran_1177_n; 
          to     span_25908_n; 
          phases AN; 
          length 168.74696; 
          configuration SystemCnstDefaultAN__1/0 Triplex; 
          } 

object node {name   span_25908_n; phases AN; nominal_voltage 120;  } 

object overhead_line {
          name   span_25906; 
          from   tran_1177_n; 
          to     span_25906_n; 
          phases AN; 
          length 58.102726; 
          configuration SystemCnstDefaultAN__1/0 Triplex; 
          } 

object node {name   span_25906_n; phases AN; nominal_voltage 120;  } 

object overhead_line {
          name   span_25907; 
          from   tran_1177_n; 
          to     span_25907_n; 
          phases AN; 
          length 93.113609; 
          configuration SystemCnstDefaultAN__1/0 Triplex; 
          } 

object node {name   span_25907_n; phases AN; nominal_voltage 120;  } 

object overhead_line {
          name   span_31656; 
          from   span_4083_n; 
          to     span_31656_n; 
          phases AN; 
          length 217.59328; 
          configuration SystemCnstDefaultAN__4 AC; 
          } 

object node {name   span_31656_n; phases AN; nominal_voltage 7200;  } 

object transformer {
          name   T3966011; 
          from   span_31656_n; 
          to     T3966011_n; 
          phases AN; 
          configuration SINGLE_PHASE-_10-7200To120V; 
          } 

object node {name   T3966011_n; phases AN; nominal_voltage 120;  } 

object overhead_line {
          name   span_31658; 
          from   T3966011_n; 
          to     span_31658_n; 
          phases AN; 
          length 536.03125; 
          configuration SystemCnstDefaultAN__1/0 Triplex; 
          } 

object node {name   span_31658_n; phases AN; nominal_voltage 120;  } 

object overhead_line {
          name   span_31657; 
          from   span_31656_n; 
          to     span_31657_n; 
          phases AN; 
          length 554.84045; 
          configuration SystemCnstDefaultAN__4 AC; 
          } 

object node {name   span_31657_n; phases AN; nominal_voltage 7200;  } 

object underground_line {
          name   span_15788; 
          from   span_31657_n; 
          to     span_15788_n; 
          phases AN; 
          length 282.5704; 
          configuration SystemCnstDefaultA__1/0 URD; 
          } 

object node {name   span_15788_n; phases AN; nominal_voltage 7200;  } 

object transformer {
          name   T3966015; 
          from   span_15788_n; 
          to     T3966015_n; 
          phases AN; 
          configuration SINGLE_PHASE-_15-7200To120V; 
          } 

object node {name   T3966015_n; phases AN; nominal_voltage 120;  } 

object underground_line {
          name   span_46051; 
          from   T3966015_n; 
          to     span_46051_n; 
          phases AN; 
          length 49.279858; 
          configuration SystemCnstDefaultA__1/0AL UG; 
          } 

object node {name   span_46051_n; phases AN; nominal_voltage 120;  } 

object overhead_line {
          name   span_31662; 
          from   span_31657_n; 
          to     span_31662_n; 
          phases AN; 
          length 87.714302; 
          configuration SystemCnstDefaultAN__4 AC; 
          } 

object node {name   span_31662_n; phases AN; nominal_voltage 7200;  } 

object transformer {
          name   T3966014; 
          from   span_31662_n; 
          to     T3966014_n; 
          phases AN; 
          configuration SINGLE_PHASE--7200To120V; 
          } 

object node {name   T3966014_n; phases AN; nominal_voltage 120;  } 

object overhead_line {
          name   span_31664; 
          from   T3966014_n; 
          to     span_31664_n; 
          phases AN; 
          length 148.97; 
          configuration SystemCnstDefaultAN__1/0 Triplex; 
          } 

object node {name   span_31664_n; phases AN; nominal_voltage 120;  } 

object overhead_line {
          name   span_31663; 
          from   span_31662_n; 
          to     span_31663_n; 
          phases AN; 
          length 229.93591; 
          configuration SystemCnstDefaultAN__4 AC; 
          } 

object node {name   span_31663_n; phases AN; nominal_voltage 7200;  } 

object overhead_line {
          name   span_8127; 
          from   span_31663_n; 
          to     span_8127_n; 
          phases AN; 
          length 363.82724; 
          configuration SystemCnstDefaultAN__4 AC; 
          } 

object node {name   span_8127_n; phases AN; nominal_voltage 7200;  } 

object overhead_line {
          name   span_8126; 
          from   span_8127_n; 
          to     span_8126_n; 
          phases AN; 
          length 188.04085; 
          configuration SystemCnstDefaultAN__4 AC; 
          } 

object node {name   span_8126_n; phases AN; nominal_voltage 7200;  } 

object transformer {
          name   T3967009; 
          from   span_8126_n; 
          to     T3967009_n; 
          phases AN; 
          configuration SINGLE_PHASE-_10-7200To120V; 
          } 

object node {name   T3967009_n; phases AN; nominal_voltage 120;  } 

object overhead_line {
          name   span_25911; 
          from   T3967009_n; 
          to     span_25911_n; 
          phases AN; 
          length 119.53744; 
          configuration SystemCnstDefaultAN__1/0 Triplex; 
          } 

object node {name   span_25911_n; phases AN; nominal_voltage 120;  } 

object transformer {
          name   T3966002; 
          from   span_31663_n; 
          to     T3966002_n; 
          phases AN; 
          configuration SINGLE_PHASE-_15-7200To120V; 
          } 

object node {name   T3966002_n; phases AN; nominal_voltage 120;  } 

object overhead_line {
          name   span_31659; 
          from   T3966002_n; 
          to     span_31659_n; 
          phases AN; 
          length 352.96143; 
          configuration SystemCnstDefaultAN__1/0 Triplex; 
          } 

object node {name   span_31659_n; phases AN; nominal_voltage 120;  } 

object overhead_line {
          name   span_31660; 
          from   T3966002_n; 
          to     span_31660_n; 
          phases AN; 
          length 324.89246; 
          configuration SystemCnstDefaultAN__1/0 Triplex; 
          } 

object node {name   span_31660_n; phases AN; nominal_voltage 120;  } 

object overhead_line {
          name   span_31661; 
          from   T3966002_n; 
          to     span_31661_n; 
          phases AN; 
          length 326.92615; 
          configuration SystemCnstDefaultAN__1/0 Triplex; 
          } 

object node {name   span_31661_n; phases AN; nominal_voltage 120;  } 

object overhead_line {
          name   span_4079; 
          from   span_31663_n; 
          to     span_4079_n; 
          phases AN; 
          length 2038.3691; 
          configuration SystemCnstDefaultAN__4 AC; 
          } 

object node {name   span_4079_n; phases AN; nominal_voltage 7200;  } 

object overhead_line {
          name   span_4072; 
          from   span_4079_n; 
          to     span_4072_n; 
          phases AN; 
          length 273.43246; 
          configuration SystemCnstDefaultAN__4 AC; 
          } 

object node {name   span_4072_n; phases AN; nominal_voltage 7200;  } 

object overhead_line {
          name   span_970; 
          from   span_4072_n; 
          to     span_970_n; 
          phases AN; 
          length 329.55444; 
          configuration SystemCnstDefaultAN__4 AC; 
          } 

object node {name   span_970_n; phases AN; nominal_voltage 7200;  } 

object overhead_line {
          name   span_4066; 
          from   span_970_n; 
          to     span_4066_n; 
          phases AN; 
          length 273.78922; 
          configuration SystemCnstDefaultAN__4 AC; 
          } 

object node {name   span_4066_n; phases AN; nominal_voltage 7200;  } 

object transformer {
          name   T3967002; 
          from   span_4066_n; 
          to     T3967002_n; 
          phases AN; 
          configuration SINGLE_PHASE-_10-7200To120V; 
          } 

object node {name   T3967002_n; phases AN; nominal_voltage 120;  } 

object overhead_line {
          name   span_25912; 
          from   T3967002_n; 
          to     span_25912_n; 
          phases AN; 
          length 129.88698; 
          configuration SystemCnstDefaultAN__1/0 Triplex; 
          } 

object node {name   span_25912_n; phases AN; nominal_voltage 120;  } 

object node {name   SL39-32-2-A_n; phases AN; nominal_voltage 7200;  } 

object switch {
          name   SL39-32-2-A; 
          from   span_970_n; 
          to     SL39-32-2-A_n; 
          phases AN; 
          status CLOSED; 
          } 

object underground_line {
          name   span_17514; 
          from   SL39-32-2-A_n; 
          to     span_17514_n; 
          phases AN; 
          length 495.76312; 
          configuration SystemCnstDefaultA__1/0 URD; 
          } 

object node {name   span_17514_n; phases AN; nominal_voltage 7200;  } 

object transformer {
          name   T3967003; 
          from   span_17514_n; 
          to     T3967003_n; 
          phases AN; 
          configuration SINGLE_PHASE-_25-7200To120V; 
          } 

object node {name   T3967003_n; phases AN; nominal_voltage 119.99999;  } 

object underground_line {
          name   span_42529; 
          from   T3967003_n; 
          to     span_42529_n; 
          phases AN; 
          length 72.313614; 
          configuration SystemCnstDefaultA__4/0AL UG; 
          } 

object node {name   span_42529_n; phases AN; nominal_voltage 119.99999;  } 

object underground_line {
          name   span_42528; 
          from   T3967003_n; 
          to     span_42528_n; 
          phases AN; 
          length 39.666286; 
          configuration SystemCnstDefaultA__4/0AL UG; 
          } 

object node {name   span_42528_n; phases AN; nominal_voltage 119.99999;  } 

object overhead_line {
          name   span_53051; 
          from   span_4072_n; 
          to     span_53051_n; 
          phases AN; 
          length 1042; 
          configuration SystemCnstDefaultAN__4 AC; 
          } 

object node {name   span_53051_n; phases AN; nominal_voltage 7200;  } 

object overhead_line {
          name   span_53052; 
          from   span_53051_n; 
          to     span_53052_n; 
          phases AN; 
          length 162; 
          configuration SystemCnstDefaultAN__4 AC; 
          } 
