///////////////////////////////////////////////////////; 
// This glm created by 'Milsoft to GridLabD Export'. //; 
//             Wed May 21 16:25:08 2014              //; 
///////////////////////////////////////////////////////; 

clock { timestamp '2000-01-01 00:00:00'; } 

module powerflow{ solver_method FBS; } 
// Note: Number Of Looped Switches in WindMil = 0 

object node {
          name            SUB 1; 
          phases          ABCN; 
          bustype         PQ; 
          voltage_A       +7200+0j; 
          voltage_B       -3600-6235.3828j; 
          voltage_C       -3600+6235.3828j; 
          nominal_voltage 7200; 
          } 

object node {name   span_8446_n; phases ABCN; nominal_voltage 7200;  } 

object overhead_line {
          name   span_8446; 
          from   span_28875_n; 
          to     span_8446_n; 
          phases ABCN; 
          length 242.47565; 
          configuration SystemCnstDefaultABCN__4/0 AC; 
          } 

object node {name   span_28875_n; phases ABCN; nominal_voltage 7200;  } 

object overhead_line {
          name   span_28875; 
          from   span_28874_n; 
          to     span_28875_n; 
          phases ABCN; 
          length 153.32645; 
          configuration SystemCnstDefaultABCN__4/0 AC; 
          } 

object node {name   span_28874_n; phases ABCN; nominal_voltage 7200;  } 

object overhead_line {
          name   span_28874; 
          from   span_4870_n; 
          to     span_28874_n; 
          phases ABCN; 
          length 195.10448; 
          configuration SystemCnstDefaultABCN__4/0 AC; 
          } 

object node {name   span_4870_n; phases ABCN; nominal_voltage 7200;  } 

object overhead_line {
          name   span_4870; 
          from   span_15885_n; 
          to     span_4870_n; 
          phases ABCN; 
          length 36.616791; 
          configuration SystemCnstDefaultABCN__4/0 AC; 
          } 

object node {name   span_15885_n; phases ABCN; nominal_voltage 7200;  } 

object underground_line {
          name   span_15885; 
          from   span_19466_n; 
          to     span_15885_n; 
          phases ABCN; 
          length 1240.6028; 
          configuration SystemCnstDefaultABC__500 MCM URD; 
          } 

object node {name   span_19466_n; phases ABCN; nominal_voltage 7200;  } 

object underground_line {
          name   span_19466; 
          from   span_19465_n; 
          to     span_19466_n; 
          phases ABCN; 
          length 735; 
          configuration SystemCnstDefaultABC__500 MCM URD; 
          } 

object node {name   span_19465_n; phases ABCN; nominal_voltage 7200;  } 

object underground_line {
          name   span_19465; 
          from   span_16712_n; 
          to     span_19465_n; 
          phases ABCN; 
          length 331; 
          configuration SystemCnstDefaultABC__500 MCM URD; 
          } 

object node {name   span_16712_n; phases ABCN; nominal_voltage 7200;  } 

object underground_line {
          name   span_16712; 
          from   PMH33-20-5-A_n; 
          to     span_16712_n; 
          phases ABCN; 
          length 19; 
          configuration SystemCnstDefaultABC__500 MCM URD; 
          } 

object switch {
          name   PMH33-20-5-A; 
          from   span_21356_n; 
          to     PMH33-20-5-A_n; 
          phases ABCN; 
          status CLOSED; 
          } 

object node {name   PMH33-20-5-A_n; phases ABCN; nominal_voltage 7200;  } 

object node {name   span_21356_n; phases ABCN; nominal_voltage 7200;  } 

object underground_line {
          name   span_21356; 
          from   span_21355_n; 
          to     span_21356_n; 
          phases ABCN; 
          length 3926; 
          configuration SystemCnstDefaultABC__500 MCM URD; 
          } 

object node {name   span_21355_n; phases ABCN; nominal_voltage 7200;  } 

object underground_line {
          name   span_21355; 
          from   span_19467_n; 
          to     span_21355_n; 
          phases ABCN; 
          length 2953; 
          configuration SystemCnstDefaultABC__500 MCM URD; 
          } 

object node {name   span_28835_n; phases AN; nominal_voltage 120;  } 

object overhead_line {
          name   span_28835; 
          from   T3308003_n; 
          to     span_28835_n; 
          phases AN; 
          length 192.25575; 
          configuration SystemCnstDefaultAN__1/0 Triplex; 
          } 

object node {name   T3308003_n; phases AN; nominal_voltage 120;  } 

object transformer {
          name   T3308003; 
          from   span_1884_n; 
          to     T3308003_n; 
          phases AN; 
          configuration SINGLE_PHASE-_15-7200To120V; 
          } 

object node {name   span_1884_n; phases AN; nominal_voltage 7200;  } 

object overhead_line {
          name   span_1884; 
          from   F33-8-2_n; 
          to     span_1884_n; 
          phases AN; 
          length 239.01947; 
          configuration SystemCnstDefaultAN__1/0 AC; 
          } 

object node {name   F33-8-2_n; phases AN; nominal_voltage 7200;  } 

object fuse {
          name          F33-8-2; 
          from          span_91973_n; 
          to            F33-8-2_n; 
          phases        AN; 
          current_limit 45.00544; 
          mean_replacement_time 1.0 ; 
          repair_dist_type      NONE; 
          } 

object node {name   span_91973_n; phases AN; nominal_voltage 7200;  } 

object underground_line {
          name   span_91973; 
          from   span_91972_n; 
          to     span_91973_n; 
          phases AN; 
          length 24; 
          configuration SystemCnstDefaultA__1/0 URD; 
          } 

object node {name   span_91972_n; phases AN; nominal_voltage 7200;  } 

object underground_line {
          name   span_91972; 
          from   span_19467_n; 
          to     span_91972_n; 
          phases AN; 
          length 49; 
          configuration SystemCnstDefaultA__1/0 URD; 
          } 

object node {name   span_19467_n; phases ABCN; nominal_voltage 7200;  } 

object underground_line {
          name   span_19467; 
          from   span_752_n; 
          to     span_19467_n; 
          phases ABCN; 
          length 8950; 
          configuration SystemCnstDefaultABC__500 MCM URD; 
          } 

object node {name   span_752_n; phases ABCN; nominal_voltage 7200;  } 

object overhead_line {
          name   span_752; 
          from   AI CKT 1_n; 
          to     span_752_n; 
          phases ABCN; 
          length 282; 
          configuration SystemCnstDefaultABCN__4/0 AC; 
          } 

object node {name   AI CKT 1_n; phases ABCN; nominal_voltage 7200;  } 

object recloser {
          name                AI CKT 1; 
          from                SUB 1; 
          to                  AI CKT 1_n; 
          phases              ABCN; 
          max_number_of_tries 2; 
          } 

object node {name   span_43515_n; phases AN; nominal_voltage 119.99999;  } 

object overhead_line {
          name   span_720; 
          from   span_81570_n; 
          to     span_720_n; 
          phases AN; 
          length 281.54187; 
          configuration SystemCnstDefaultAN__4 AC; 
          } 

object node {name   span_720_n; phases AN; nominal_voltage 7200;  } 

object transformer {
          name   tran_3164; 
          from   span_720_n; 
          to     tran_3164_n; 
          phases AN; 
          configuration SINGLE_PHASE-_10-7200To120V; 
          } 

object node {name   tran_3164_n; phases AN; nominal_voltage 120;  } 

object overhead_line {
          name   span_24749; 
          from   tran_3164_n; 
          to     span_24749_n; 
          phases AN; 
          length 139.62106; 
          configuration SystemCnstDefaultAN__1/0 Triplex; 
          } 

object node {name   span_24749_n; phases AN; nominal_voltage 120;  } 

object overhead_line {
          name   span_81572; 
          from   span_81570_n; 
          to     span_81572_n; 
          phases AN; 
          length 357; 
          configuration SystemCnstDefaultAN__6 FCWC; 
          } 

object node {name   span_81572_n; phases AN; nominal_voltage 7200;  } 

object overhead_line {
          name   span_81573; 
          from   span_81572_n; 
          to     span_81573_n; 
          phases AN; 
          length 296; 
          configuration SystemCnstDefaultAN__6 FCWC; 
          } 

object node {name   span_81573_n; phases AN; nominal_voltage 7200;  } 

object overhead_line {
          name   span_81574; 
          from   span_81573_n; 
          to     span_81574_n; 
          phases AN; 
          length 250; 
          configuration SystemCnstDefaultAN__6 FCWC; 
          } 

object node {name   span_81574_n; phases AN; nominal_voltage 7200;  } 

object transformer {
          name   T3436005; 
          from   span_81574_n; 
          to     T3436005_n; 
          phases AN; 
          configuration SINGLE_PHASE-_15-7200To120V; 
          } 

object node {name   T3436005_n; phases AN; nominal_voltage 120;  } 

object overhead_line {
          name   span_83164; 
          from   T3436005_n; 
          to     span_83164_n; 
          phases AN; 
          length 70; 
          configuration SystemCnstDefaultAN__1/0 Triplex; 
          } 

object node {name   span_83164_n; phases AN; nominal_voltage 120;  } 

object underground_line {
          name   span_83165; 
          from   serv_45576_n; 
          to     span_83165_n; 
          phases AN; 
          length 59.321453; 
          configuration SystemCnstDefaultA__4/0AL UG; 
          } 

object node {name   span_83165_n; phases AN; nominal_voltage 120;  } 

object transformer {
          name   T3357005; 
          from   span_28961_n; 
          to     T3357005_n; 
          phases AN; 
          configuration SINGLE_PHASE-_10-7200To120V; 
          } 

object node {name   T3357005_n; phases AN; nominal_voltage 120;  } 

object overhead_line {
          name   span_28963; 
          from   T3357005_n; 
          to     span_28963_n; 
          phases AN; 
          length 146.89435; 
          configuration SystemCnstDefaultAN__1/0 Triplex; 
          } 

object node {name   span_28963_n; phases AN; nominal_voltage 120;  } 

object fuse {
          name          F33-31-6; 
          from          span_41827_n; 
          to            F33-31-6_n; 
          phases        BN; 
          current_limit 45.00544; 
          mean_replacement_time 1.0 ; 
          repair_dist_type      NONE; 
          } 

object node {name   F33-31-6_n; phases BN; nominal_voltage 7200;  } 

object overhead_line {
          name   span_1918; 
          from   F33-31-6_n; 
          to     span_1918_n; 
          phases BN; 
          length 320.74158; 
          configuration SystemCnstDefaultBN__4 AC; 
          } 

object node {name   span_1918_n; phases BN; nominal_voltage 7200;  } 

object transformer {
          name   T3356007; 
          from   span_1918_n; 
          to     T3356007_n; 
          phases BN; 
          configuration SINGLE_PHASE-_10-7200To120V; 
          } 

object node {name   T3356007_n; phases BN; nominal_voltage 120;  } 

object overhead_line {
          name   span_24744; 
          from   T3356007_n; 
          to     span_24744_n; 
          phases BN; 
          length 39.0065; 
          configuration SystemCnstDefaultBN__1/0 Triplex; 
          } 

object node {name   span_24744_n; phases BN; nominal_voltage 120;  } 

object transformer {
          name   T3356017; 
          from   span_41827_n; 
          to     T3356017_n; 
          phases CN; 
          configuration SINGLE_PHASE-_10-7200To120V; 
          } 

object node {name   T3356017_n; phases CN; nominal_voltage 119.99999;  } 

object overhead_line {
          name   span_33093; 
          from   T3356017_n; 
          to     span_33093_n; 
          phases CN; 
          length 128.0439; 
          configuration SystemCnstDefaultCN__#4 Triplex; 
          } 

object node {name   span_33093_n; phases CN; nominal_voltage 119.99999;  } 

object underground_line {
          name   span_41826; 
          from   serv_64589_n; 
          to     span_41826_n; 
          phases CN; 
          length 72; 
          configuration SystemCnstDefaultC__4/0AL UG; 
          } 

object node {name   span_41826_n; phases CN; nominal_voltage 119.99999;  } 

object transformer {
          name   T3356012; 
          from   span_6505_n; 
          to     T3356012_n; 
          phases BN; 
          configuration SINGLE_PHASE-_15-7200To120V; 
          } 

object node {name   T3356012_n; phases BN; nominal_voltage 120;  } 

object overhead_line {
          name   span_12558; 
          from   T3356012_n; 
          to     span_12558_n; 
          phases BN; 
          length 78.401917; 
          configuration SystemCnstDefaultBN__1/0 Triplex; 
          } 

object node {name   span_12558_n; phases BN; nominal_voltage 120;  } 

object fuse {
          name          F33-29-12; 
          from          span_4835_n; 
          to            F33-29-12_n; 
          phases        AN; 
          current_limit 92.888939; 
          mean_replacement_time 1.0 ; 
          repair_dist_type      NONE; 
          } 

object node {name   F33-29-12_n; phases AN; nominal_voltage 7200;  } 

object overhead_line {
          name   span_4829; 
          from   F33-29-12_n; 
          to     span_4829_n; 
          phases AN; 
          length 1295.7683; 
          configuration SystemCnstDefaultAN__4/0 AC; 
          } 

object node {name   span_4829_n; phases AN; nominal_voltage 7200;  } 

object fuse {
          name          F33-32-16; 
          from          span_4829_n; 
          to            F33-32-16_n; 
          phases        AN; 
          current_limit 35.655785; 
          mean_replacement_time 1.0 ; 
          repair_dist_type      NONE; 
          } 

object node {name   F33-32-16_n; phases AN; nominal_voltage 7200;  } 

object underground_line {
          name   span_18272; 
          from   F33-32-16_n; 
          to     span_18272_n; 
          phases AN; 
          length 179.68469; 
          configuration SystemCnstDefaultA__1/0 URD; 
          } 

object node {name   span_18272_n; phases AN; nominal_voltage 7200;  } 

object transformer {
          name   T3365030; 
          from   span_18272_n; 
          to     T3365030_n; 
          phases AN; 
          configuration SINGLE_PHASE-_15-7200To120V; 
          } 

object node {name   T3365030_n; phases AN; nominal_voltage 120;  } 

object underground_line {
          name   span_23414; 
          from   T3365030_n; 
          to     span_23414_n; 
          phases AN; 
          length 77.09655; 
          configuration SystemCnstDefaultA__1/0AL UD; 
          } 

object node {name   span_23414_n; phases AN; nominal_voltage 120;  } 

object overhead_line {
          name   span_4828; 
          from   span_4829_n; 
          to     span_4828_n; 
          phases AN; 
          length 429.41803; 
          configuration SystemCnstDefaultAN__4/0 AC; 
          } 

object node {name   span_4828_n; phases AN; nominal_voltage 7200;  } 

object overhead_line {
          name   span_1663; 
          from   span_4828_n; 
          to     span_1663_n; 
          phases AN; 
          length 240.89799; 
          configuration SystemCnstDefaultAN__4/0 AC; 
          } 

object node {name   span_1663_n; phases AN; nominal_voltage 7200;  } 

object transformer {
          name   T3366001; 
          from   span_1663_n; 
          to     T3366001_n; 
          phases AN; 
          configuration SINGLE_PHASE-_10-7200To120V; 
          } 

object node {name   T3366001_n; phases AN; nominal_voltage 120;  } 

object overhead_line {
          name   span_24740; 
          from   T3366001_n; 
          to     span_24740_n; 
          phases AN; 
          length 69.693565; 
          configuration SystemCnstDefaultAN__1/0 Triplex; 
          } 

object node {name   span_24740_n; phases AN; nominal_voltage 120;  } 

object overhead_line {
          name   span_698; 
          from   span_4828_n; 
          to     span_698_n; 
          phases AN; 
          length 216.68639; 
          configuration SystemCnstDefaultAN__4/0 AC; 
          } 

object node {name   span_698_n; phases AN; nominal_voltage 7200;  } 

object transformer {
          name   T3357003; 
          from   span_698_n; 
          to     T3357003_n; 
          phases AN; 
          configuration SINGLE_PHASE-_10-7200To120V; 
          } 

object node {name   T3357003_n; phases AN; nominal_voltage 120;  } 

object overhead_line {
          name   span_24739; 
          from   T3357003_n; 
          to     span_24739_n; 
          phases AN; 
          length 73.854599; 
          configuration SystemCnstDefaultAN__1/0 Triplex; 
          } 

object node {name   span_24739_n; phases AN; nominal_voltage 120;  } 

object overhead_line {
          name   span_4826; 
          from   span_4828_n; 
          to     span_4826_n; 
          phases AN; 
          length 324.16092; 
          configuration SystemCnstDefaultAN__4/0 AC; 
          } 

object node {name   span_4826_n; phases AN; nominal_voltage 7200;  } 

object fuse {
          name          F33-32-7; 
          from          span_4826_n; 
          to            F33-32-7_n; 
          phases        AN; 
          current_limit 35.655785; 
          mean_replacement_time 1.0 ; 
          repair_dist_type      NONE; 
          } 

object node {name   F33-32-7_n; phases AN; nominal_voltage 7200;  } 

object underground_line {
          name   span_16279; 
          from   F33-32-7_n; 
          to     span_16279_n; 
          phases AN; 
          length 635.15869; 
          configuration SystemCnstDefaultA__4/0 URD; 
          } 

object node {name   span_16279_n; phases AN; nominal_voltage 7200;  } 

object transformer {
          name   T3366011; 
          from   span_16279_n; 
          to     T3366011_n; 
          phases AN; 
          configuration SINGLE_PHASE-_0_D3_0-7200To120V; 
          } 

object node {name   T3366011_n; phases AN; nominal_voltage 119.99999;  } 

object underground_line {
          name   span_43505; 
          from   T3366011_n; 
          to     span_43505_n; 
          phases AN; 
          length 91.462822; 
          configuration SystemCnstDefaultA__4/0AL UG; 
          } 

object node {name   span_43505_n; phases AN; nominal_voltage 119.99999;  } 

object overhead_line {
          name   span_4825; 
          from   span_4826_n; 
          to     span_4825_n; 
          phases AN; 
          length 474.69696; 
          configuration SystemCnstDefaultAN__4/0 AC; 
          } 

object node {name   span_4825_n; phases AN; nominal_voltage 7200;  } 

object transformer {
          name   T3357004; 
          from   span_4825_n; 
          to     T3357004_n; 
          phases AN; 
          configuration SINGLE_PHASE-_3-7200To120V; 
          } 

object node {name   T3357004_n; phases AN; nominal_voltage 120;  } 

object overhead_line {
          name   span_24738; 
          from   T3357004_n; 
          to     span_24738_n; 
          phases AN; 
          length 30.993544; 
          configuration SystemCnstDefaultAN__1/0 Triplex; 
          } 

object node {name   span_24738_n; phases AN; nominal_voltage 120;  } 

object fuse {
          name          F33-29-11; 
          from          span_4837_n; 
          to            F33-29-11_n; 
          phases        BN; 
          current_limit 45.00544; 
          mean_replacement_time 1.0 ; 
          repair_dist_type      NONE; 
          } 

object node {name   F33-29-11_n; phases BN; nominal_voltage 7200;  } 

object overhead_line {
          name   span_1911; 
          from   F33-29-11_n; 
          to     span_1911_n; 
          phases BN; 
          length 95.772697; 
          configuration SystemCnstDefaultBN__4/0 AC; 
          } 

object node {name   span_1911_n; phases BN; nominal_voltage 7200;  } 

object transformer {
          name   T3365014; 
          from   span_1911_n; 
          to     T3365014_n; 
          phases BN; 
          configuration SINGLE_PHASE-_10-7200To120V; 
          } 

object node {name   T3365014_n; phases BN; nominal_voltage 120;  } 

object overhead_line {
          name   span_24735; 
          from   T3365014_n; 
          to     span_24735_n; 
          phases BN; 
          length 29.056643; 
          configuration SystemCnstDefaultBN__1/0 Triplex; 
          } 

object node {name   span_24735_n; phases BN; nominal_voltage 120;  } 

object overhead_line {
          name   span_296; 
          from   F33-29-11_n; 
          to     span_296_n; 
          phases BN; 
          length 225.80844; 
          configuration SystemCnstDefaultBN__4/0 AC; 
          } 

object node {name   span_296_n; phases BN; nominal_voltage 7200;  } 

object transformer {
          name   T3365013; 
          from   span_296_n; 
          to     T3365013_n; 
          phases BN; 
          configuration SINGLE_PHASE-_10-7200To120V; 
          } 

object node {name   T3365013_n; phases BN; nominal_voltage 120;  } 

object overhead_line {
          name   span_24736; 
          from   T3365013_n; 
          to     span_24736_n; 
          phases BN; 
          length 28.485447; 
          configuration SystemCnstDefaultBN__1/0 Triplex; 
          } 

object node {name   span_24736_n; phases BN; nominal_voltage 120;  } 

object fuse {
          name          F33-29-2; 
          from          span_4838_n; 
          to            F33-29-2_n; 
          phases        CN; 
          current_limit 45.00544; 
          mean_replacement_time 1.0 ; 
          repair_dist_type      NONE; 
          } 

object node {name   F33-29-2_n; phases CN; nominal_voltage 7200;  } 

object overhead_line {
          name   span_5740; 
          from   F33-29-2_n; 
          to     span_5740_n; 
          phases CN; 
          length 119.32436; 
          configuration SystemCnstDefaultCN__4/0 AC; 
          } 

object node {name   span_5740_n; phases CN; nominal_voltage 7200;  } 

object overhead_line {
          name   span_5741; 
          from   span_5740_n; 
          to     span_5741_n; 
          phases CN; 
          length 1073.623; 
          configuration SystemCnstDefaultCN__4/0 AC; 
          } 

object node {name   span_5741_n; phases CN; nominal_voltage 7200;  } 

object transformer {
          name   T3365015; 
          from   span_5741_n; 
          to     T3365015_n; 
          phases CN; 
          configuration SINGLE_PHASE-_10-7200To120V; 
          } 

object node {name   T3365015_n; phases CN; nominal_voltage 120;  } 

object overhead_line {
          name   span_24734; 
          from   T3365015_n; 
          to     span_24734_n; 
          phases CN; 
          length 27.734264; 
          configuration SystemCnstDefaultCN__1/0 Triplex; 
          } 

object node {name   span_24734_n; phases CN; nominal_voltage 120;  } 

object transformer {
          name   T3365029; 
          from   span_5740_n; 
          to     T3365029_n; 
          phases CN; 
          configuration SINGLE_PHASE-_10-7200To120V; 
          } 

object node {name   T3365029_n; phases CN; nominal_voltage 120;  } 

object underground_line {
          name   span_49059; 
          from   serv_16729_n; 
          to     span_49059_n; 
          phases CN; 
          length 84.996033; 
          configuration SystemCnstDefaultC__4/0AL UG; 
          } 

object node {name   span_49059_n; phases CN; nominal_voltage 120;  } 

object fuse {
          name          F33-29-1; 
          from          span_4839_n; 
          to            F33-29-1_n; 
          phases        AN; 
          current_limit 45.00544; 
          mean_replacement_time 1.0 ; 
          repair_dist_type      NONE; 
          } 

object node {name   F33-29-1_n; phases AN; nominal_voltage 7200;  } 

object overhead_line {
          name   span_2061; 
          from   F33-29-1_n; 
          to     span_2061_n; 
          phases AN; 
          length 202.40863; 
          configuration SystemCnstDefaultAN__4/0 AC; 
          } 

object node {name   span_2061_n; phases AN; nominal_voltage 7200;  } 

object transformer {
          name   T3365012; 
          from   span_2061_n; 
          to     T3365012_n; 
          phases AN; 
          configuration SINGLE_PHASE-_10-7200To120V; 
          } 

object node {name   T3365012_n; phases AN; nominal_voltage 120;  } 

object overhead_line {
          name   span_24733; 
          from   T3365012_n; 
          to     span_24733_n; 
          phases AN; 
          length 76.547104; 
          configuration SystemCnstDefaultAN__1/0 Triplex; 
          } 

object node {name   span_24733_n; phases AN; nominal_voltage 120;  } 

object fuse {
          name          F33-29-8; 
          from          span_7999_n; 
          to            F33-29-8_n; 
          phases        BN; 
          current_limit 45.00544; 
          mean_replacement_time 1.0 ; 
          repair_dist_type      NONE; 
          } 

object node {name   F33-29-8_n; phases BN; nominal_voltage 7200;  } 

object overhead_line {
          name   span_424; 
          from   F33-29-8_n; 
          to     span_424_n; 
          phases BN; 
          length 219.4073; 
          configuration SystemCnstDefaultBN__2/0 AC; 
          } 

object node {name   span_424_n; phases BN; nominal_voltage 7200;  } 

object transformer {
          name   T3365016; 
          from   span_424_n; 
          to     T3365016_n; 
          phases BN; 
          configuration SINGLE_PHASE-_10-7200To120V; 
          } 

object node {name   T3365016_n; phases BN; nominal_voltage 120;  } 

object overhead_line {
          name   span_24731; 
          from   T3365016_n; 
          to     span_24731_n; 
          phases BN; 
          length 30.693953; 
          configuration SystemCnstDefaultBN__1/0 Triplex; 
          } 

object node {name   span_24731_n; phases BN; nominal_voltage 120;  } 

object overhead_line {
          name   span_1902; 
          from   F33-29-8_n; 
          to     span_1902_n; 
          phases BN; 
          length 216.84215; 
          configuration SystemCnstDefaultBN__2/0 AC; 
          } 

object node {name   span_1902_n; phases BN; nominal_voltage 7200;  } 

object transformer {
          name   T3365017; 
          from   span_1902_n; 
          to     T3365017_n; 
          phases BN; 
          configuration SINGLE_PHASE-_25-7200To120V; 
          } 

object node {name   T3365017_n; phases BN; nominal_voltage 120;  } 

object overhead_line {
          name   span_24730; 
          from   T3365017_n; 
          to     span_24730_n; 
          phases BN; 
          length 59.392075; 
          configuration SystemCnstDefaultBN__1/0 Triplex; 
          } 

object node {name   span_24730_n; phases BN; nominal_voltage 120;  } 

object transformer {
          name   T3365018; 
          from   span_8000_n; 
          to     T3365018_n; 
          phases CN; 
          configuration SINGLE_PHASE-_15-7200To120V; 
          } 

object node {name   T3365018_n; phases CN; nominal_voltage 120;  } 

object overhead_line {
          name   span_24732; 
          from   T3365018_n; 
          to     span_24732_n; 
          phases CN; 
          length 108.64616; 
          configuration SystemCnstDefaultCN__1/0 Triplex; 
          } 

object node {name   span_24732_n; phases CN; nominal_voltage 120;  } 

object fuse {
          name          F33-29-21; 
          from          span_28938_n; 
          to            F33-29-21_n; 
          phases        BN; 
          current_limit 45.00544; 
          mean_replacement_time 1.0 ; 
          repair_dist_type      NONE; 
          } 

object node {name   F33-29-21_n; phases BN; nominal_voltage 7200;  } 

object underground_line {
          name   span_16046; 
          from   F33-29-21_n; 
          to     span_16046_n; 
          phases BN; 
          length 251.6207; 
          configuration SystemCnstDefaultB__1/0 URD; 
          } 

object node {name   span_16046_n; phases BN; nominal_voltage 7200;  } 

object transformer {
          name   T3365019; 
          from   span_16046_n; 
          to     T3365019_n; 
          phases BN; 
          configuration SINGLE_PHASE-_25-7200To120V; 
          } 

object node {name   T3365019_n; phases BN; nominal_voltage 120;  } 

object underground_line {
          name   span_22946; 
          from   T3365019_n; 
          to     span_22946_n; 
          phases BN; 
          length 95.309746; 
          configuration SystemCnstDefaultB__1/0AL UD; 
          } 

object node {name   span_22946_n; phases BN; nominal_voltage 120;  } 

object transformer {
          name   T3365020; 
          from   span_28937_n; 
          to     T3365020_n; 
          phases CN; 
          configuration SINGLE_PHASE-_10-7200To120V; 
          } 

object node {name   T3365020_n; phases CN; nominal_voltage 120;  } 

object overhead_line {
          name   span_28939; 
          from   T3365020_n; 
          to     span_28939_n; 
          phases CN; 
          length 179.18527; 
          configuration SystemCnstDefaultCN__1/0 Triplex; 
          } 
