///////////////////////////////////////////////////////; 
// This glm created by 'Milsoft to GridLabD Export'. //; 
//             Wed May 21 16:25:11 2014              //; 
///////////////////////////////////////////////////////; 

clock { timestamp '2000-01-01 00:00:00'; } 

module powerflow{ solver_method FBS; } 
// Note: Number Of Looped Switches in WindMil = 0 

object node {
          name            SUB 3; 
          phases          ABCN; 
          bustype         PQ; 
          voltage_A       +7200+0j; 
          voltage_B       -3600-6235.3828j; 
          voltage_C       -3600+6235.3828j; 
          nominal_voltage 7200; 
          } 

object node {name   span_19949_n; phases ABCN; nominal_voltage 7200;  } 

object underground_line {
          name   span_19949; 
          from   span_19951_n; 
          to     span_19949_n; 
          phases ABCN; 
          length 1327.7878; 
          configuration SystemCnstDefaultABC__4/0 URD; 
          } 

object node {name   span_19951_n; phases ABCN; nominal_voltage 7200;  } 

object underground_line {
          name   span_19951; 
          from   span_29891_n; 
          to     span_19951_n; 
          phases ABCN; 
          length 1610.9811; 
          configuration SystemCnstDefaultABC__4/0 URD; 
          } 

object node {name   span_48614_n; phases AN; nominal_voltage 12000;  } 

object underground_line {
          name   span_48614; 
          from   T3214015_n; 
          to     span_48614_n; 
          phases AN; 
          length 136.85359; 
          configuration SystemCnstDefaultA__1/0AL UG; 
          } 

object node {name   T3214015_n; phases AN; nominal_voltage 12000;  } 

object transformer {
          name   T3214015; 
          from   span_48613_n; 
          to     T3214015_n; 
          phases AN; 
          configuration SINGLE_PHASE-_15-72000To12000V; 
          } 

object node {name   span_48613_n; phases AN; nominal_voltage 7200;  } 

object underground_line {
          name   span_48613; 
          from   span_6127_n; 
          to     span_48613_n; 
          phases AN; 
          length 334.16367; 
          configuration SystemCnstDefaultA__1/0 URD; 
          } 

object node {name   span_6127_n; phases AN; nominal_voltage 7200;  } 

object overhead_line {
          name   span_6127; 
          from   span_8239_n; 
          to     span_6127_n; 
          phases AN; 
          length 127.61328; 
          configuration SystemCnstDefaultAN__1/0 AC; 
          } 

object node {name   span_8239_n; phases AN; nominal_voltage 7200;  } 

object overhead_line {
          name   span_8239; 
          from   F32-14-1_n; 
          to     span_8239_n; 
          phases AN; 
          length 98.183662; 
          configuration SystemCnstDefaultAN__1/0 AC; 
          } 

object node {name   F32-14-1_n; phases AN; nominal_voltage 7200;  } 

object fuse {
          name          F32-14-1; 
          from          span_29891_n; 
          to            F32-14-1_n; 
          phases        AN; 
          current_limit 45.00544; 
          mean_replacement_time 1.0 ; 
          repair_dist_type      NONE; 
          } 

object node {name   span_29891_n; phases ABCN; nominal_voltage 7200;  } 

object underground_line {
          name   span_29891; 
          from   span_29890_n; 
          to     span_29891_n; 
          phases ABCN; 
          length 336.24533; 
          configuration SystemCnstDefaultABC__4/0 URD; 
          } 

object node {name   span_29892_n; phases AN; nominal_voltage 120;  } 

object overhead_line {
          name   span_29892; 
          from   T3214016_n; 
          to     span_29892_n; 
          phases AN; 
          length 185.25516; 
          configuration SystemCnstDefaultAN__1/0 Triplex; 
          } 

object node {name   T3214016_n; phases AN; nominal_voltage 120;  } 

object transformer {
          name   T3214016; 
          from   span_29890_n; 
          to     T3214016_n; 
          phases AN; 
          configuration SINGLE_PHASE-_10-7200To120V; 
          } 

object node {name   span_29890_n; phases ABCN; nominal_voltage 7200;  } 

object underground_line {
          name   span_29890; 
          from   span_19953_n; 
          to     span_29890_n; 
          phases ABCN; 
          length 927.16968; 
          configuration SystemCnstDefaultABC__4/0 URD; 
          } 

object node {name   span_29889_n; phases AN; nominal_voltage 120;  } 

object overhead_line {
          name   span_29889; 
          from   T3214010_n; 
          to     span_29889_n; 
          phases AN; 
          length 114.94336; 
          configuration SystemCnstDefaultAN__1/0 Triplex; 
          } 

object node {name   T3214010_n; phases AN; nominal_voltage 120;  } 

object transformer {
          name   T3214010; 
          from   span_14005_n; 
          to     T3214010_n; 
          phases AN; 
          configuration SINGLE_PHASE-_5-7200To120V; 
          } 

object node {name   span_14005_n; phases AN; nominal_voltage 7200;  } 

object underground_line {
          name   span_14005; 
          from   span_19953_n; 
          to     span_14005_n; 
          phases AN; 
          length 124.89807; 
          configuration SystemCnstDefaultA__1/0 URD; 
          } 

object node {name   span_19953_n; phases ABCN; nominal_voltage 7200;  } 

object underground_line {
          name   span_19953; 
          from   span_19730_n; 
          to     span_19953_n; 
          phases ABCN; 
          length 1221.8837; 
          configuration SystemCnstDefaultABC__4/0 URD; 
          } 

object node {name   span_19730_n; phases ABCN; nominal_voltage 7200;  } 

object underground_line {
          name   span_19730; 
          from   span_19729_n; 
          to     span_19730_n; 
          phases ABCN; 
          length 3753.4312; 
          configuration SystemCnstDefaultABC__4/0 URD; 
          } 

object node {name   span_19729_n; phases ABCN; nominal_voltage 7200;  } 

object underground_line {
          name   span_19729; 
          from   span_1803_n; 
          to     span_19729_n; 
          phases ABCN; 
          length 2934.3008; 
          configuration SystemCnstDefaultABC__4/0 URD; 
          } 

object node {name   span_1803_n; phases ABCN; nominal_voltage 7200;  } 

object overhead_line {
          name   span_1803; 
          from   KM CKT 3_n; 
          to     span_1803_n; 
          phases ABCN; 
          length 185.40668; 
          configuration SystemCnstDefaultABCN__4/0 AC; 
          } 

object node {name   KM CKT 3_n; phases ABCN; nominal_voltage 7200;  } 

object recloser {
          name                KM CKT 3; 
          from                SUB 3; 
          to                  KM CKT 3_n; 
          phases              ABCN; 
          max_number_of_tries 2; 
          } 

object node {name   T4115001_n; phases CN; nominal_voltage 120;  } 

object overhead_line {
          name   span_30202; 
          from   T4115001_n; 
          to     span_30202_n; 
          phases CN; 
          length 118.61929; 
          configuration SystemCnstDefaultCN__1/0 Triplex; 
          } 

object node {name   span_30202_n; phases CN; nominal_voltage 120;  } 

object fuse {
          name          F41-10-4; 
          from          span_5577_n; 
          to            F41-10-4_n; 
          phases        CN; 
          current_limit 45.00544; 
          mean_replacement_time 1.0 ; 
          repair_dist_type      NONE; 
          } 

object node {name   F41-10-4_n; phases CN; nominal_voltage 7200;  } 

object underground_line {
          name   span_16304; 
          from   F41-10-4_n; 
          to     span_16304_n; 
          phases CN; 
          length 223.2272; 
          configuration SystemCnstDefaultC__1/0 URD; 
          } 

object node {name   span_16304_n; phases CN; nominal_voltage 7200;  } 

object transformer {
          name   T4110001; 
          from   span_16304_n; 
          to     T4110001_n; 
          phases CN; 
          configuration SINGLE_PHASE-_15-72000To12000V; 
          } 

object node {name   T4110001_n; phases CN; nominal_voltage 12000;  } 

object underground_line {
          name   span_48577; 
          from   T4110001_n; 
          to     span_48577_n; 
          phases CN; 
          length 144.73914; 
          configuration SystemCnstDefaultC__1/0AL UG; 
          } 

object node {name   span_48577_n; phases CN; nominal_voltage 12000;  } 

object fuse {
          name          F41-10-12; 
          from          span_5580_n; 
          to            F41-10-12_n; 
          phases        CN; 
          current_limit 45.00544; 
          mean_replacement_time 1.0 ; 
          repair_dist_type      NONE; 
          } 

object node {name   F41-10-12_n; phases CN; nominal_voltage 7200;  } 

object underground_line {
          name   span_18301; 
          from   F41-10-12_n; 
          to     span_18301_n; 
          phases CN; 
          length 573.85242; 
          configuration SystemCnstDefaultC__1/0 URD; 
          } 

object node {name   span_18301_n; phases CN; nominal_voltage 7200;  } 

object transformer {
          name   T4110002; 
          from   span_18301_n; 
          to     T4110002_n; 
          phases CN; 
          configuration SINGLE_PHASE-_25-7200To120V; 
          } 

object node {name   T4110002_n; phases CN; nominal_voltage 120;  } 

object underground_line {
          name   span_23426; 
          from   T4110002_n; 
          to     span_23426_n; 
          phases CN; 
          length 177.63367; 
          configuration SystemCnstDefaultC__1/0AL UD; 
          } 

object node {name   span_23426_n; phases CN; nominal_voltage 120;  } 

object fuse {
          name          F41-10-8; 
          from          span_5581_n; 
          to            F41-10-8_n; 
          phases        CN; 
          current_limit 45.00544; 
          mean_replacement_time 1.0 ; 
          repair_dist_type      NONE; 
          } 

object node {name   F41-10-8_n; phases CN; nominal_voltage 7200;  } 

object underground_line {
          name   span_16302; 
          from   F41-10-8_n; 
          to     span_16302_n; 
          phases CN; 
          length 400.71732; 
          configuration SystemCnstDefaultC__1/0 URD; 
          } 

object node {name   span_16302_n; phases CN; nominal_voltage 7200;  } 

object transformer {
          name   T4111004; 
          from   span_16302_n; 
          to     T4111004_n; 
          phases CN; 
          configuration SINGLE_PHASE-_5-7200To120V; 
          } 

object node {name   T4111004_n; phases CN; nominal_voltage 120;  } 

object underground_line {
          name   span_30200; 
          from   T4111004_n; 
          to     span_30200_n; 
          phases CN; 
          length 293.46548; 
          configuration SystemCnstDefaultC__4/0AL UG; 
          } 

object node {name   span_30200_n; phases CN; nominal_voltage 120;  } 

object overhead_line {
          name   span_1021; 
          from   span_4011_n; 
          to     span_1021_n; 
          phases CN; 
          length 156.07632; 
          configuration SystemCnstDefaultCN__1/0 AC; 
          } 

object node {name   span_1021_n; phases CN; nominal_voltage 7200;  } 

object transformer {
          name   T4152024; 
          from   span_1021_n; 
          to     T4152024_n; 
          phases CN; 
          configuration SINGLE_PHASE-_10-7200To120V; 
          } 

object node {name   T4152024_n; phases CN; nominal_voltage 120;  } 

object overhead_line {
          name   span_30199; 
          from   T4152024_n; 
          to     span_30199_n; 
          phases CN; 
          length 41.695778; 
          configuration SystemCnstDefaultCN__1/0 Triplex; 
          } 

object node {name   span_30199_n; phases CN; nominal_voltage 120;  } 

object overhead_line {
          name   span_1380; 
          from   span_4015_n; 
          to     span_1380_n; 
          phases CN; 
          length 235.84952; 
          configuration SystemCnstDefaultCN__4 AC; 
          } 

object node {name   span_1380_n; phases CN; nominal_voltage 7200;  } 

object transformer {
          name   T4152044; 
          from   span_1380_n; 
          to     T4152044_n; 
          phases CN; 
          configuration SINGLE_PHASE-_10-7200To120V; 
          } 

object node {name   T4152044_n; phases CN; nominal_voltage 120;  } 

object overhead_line {
          name   span_30188; 
          from   T4152044_n; 
          to     span_30188_n; 
          phases CN; 
          length 29.257006; 
          configuration SystemCnstDefaultCN__1/0 Triplex; 
          } 

object node {name   span_30188_n; phases CN; nominal_voltage 120;  } 

object fuse {
          name          F41-3-18; 
          from          span_1811_n; 
          to            F41-3-18_n; 
          phases        CN; 
          current_limit 45.00544; 
          mean_replacement_time 1.0 ; 
          repair_dist_type      NONE; 
          } 

object node {name   F41-3-18_n; phases CN; nominal_voltage 7200;  } 

object overhead_line {
          name   span_4017; 
          from   F41-3-18_n; 
          to     span_4017_n; 
          phases CN; 
          length 184.14792; 
          configuration SystemCnstDefaultCN__1/0 AC; 
          } 

object node {name   span_4017_n; phases CN; nominal_voltage 7200;  } 

object transformer {
          name   T4152012; 
          from   span_4017_n; 
          to     T4152012_n; 
          phases CN; 
          configuration SINGLE_PHASE-_10-7200To120V; 
          } 

object node {name   T4152012_n; phases CN; nominal_voltage 120;  } 

object overhead_line {
          name   span_30186; 
          from   T4152012_n; 
          to     span_30186_n; 
          phases CN; 
          length 50.014641; 
          configuration SystemCnstDefaultCN__1/0 Triplex; 
          } 

object node {name   span_30186_n; phases CN; nominal_voltage 120;  } 

object overhead_line {
          name   span_4016; 
          from   span_4017_n; 
          to     span_4016_n; 
          phases CN; 
          length 142.68509; 
          configuration SystemCnstDefaultCN__1/0 AC; 
          } 

object node {name   span_4016_n; phases CN; nominal_voltage 7200;  } 

object fuse {
          name          F41-3-10; 
          from          span_4016_n; 
          to            F41-3-10_n; 
          phases        CN; 
          current_limit 19.168053; 
          mean_replacement_time 1.0 ; 
          repair_dist_type      NONE; 
          } 

object node {name   F41-3-10_n; phases CN; nominal_voltage 7200;  } 

object underground_line {
          name   span_16294; 
          from   F41-3-10_n; 
          to     span_16294_n; 
          phases CN; 
          length 138.22575; 
          configuration SystemCnstDefaultC__1/0 URD; 
          } 

object node {name   span_16294_n; phases CN; nominal_voltage 7200;  } 

object transformer {
          name   T5818003; 
          from   span_16294_n; 
          to     T5818003_n; 
          phases CN; 
          configuration SINGLE_PHASE-_15-7200To120V; 
          } 

object node {name   T5818003_n; phases CN; nominal_voltage 120;  } 

object underground_line {
          name   span_30184; 
          from   T5818003_n; 
          to     span_30184_n; 
          phases CN; 
          length 125.88043; 
          configuration SystemCnstDefaultC__4/0AL UG; 
          } 

object node {name   span_30184_n; phases CN; nominal_voltage 120;  } 

object overhead_line {
          name   span_1296; 
          from   span_4017_n; 
          to     span_1296_n; 
          phases CN; 
          length 441.38004; 
          configuration SystemCnstDefaultCN__1/0 AC; 
          } 

object node {name   span_1296_n; phases CN; nominal_voltage 7200;  } 

object transformer {
          name   T4152040; 
          from   span_1296_n; 
          to     T4152040_n; 
          phases CN; 
          configuration SINGLE_PHASE-_10-7200To120V; 
          } 

object node {name   T4152040_n; phases CN; nominal_voltage 120;  } 

object overhead_line {
          name   span_30185; 
          from   T4152040_n; 
          to     span_30185_n; 
          phases CN; 
          length 36.574009; 
          configuration SystemCnstDefaultCN__1/0 Triplex; 
          } 

object node {name   span_30185_n; phases CN; nominal_voltage 120;  } 

object underground_line {
          name   span_13964; 
          from   span_19882_n; 
          to     span_13964_n; 
          phases AN; 
          length 82; 
          configuration SystemCnstDefaultA__1/0 URD; 
          } 

object node {name   span_13964_n; phases AN; nominal_voltage 7200;  } 

object transformer {
          name   T4152028; 
          from   span_13964_n; 
          to     T4152028_n; 
          phases AN; 
          configuration SINGLE_PHASE-_10-7200To120V; 
          } 

object node {name   T4152028_n; phases AN; nominal_voltage 120;  } 

object underground_line {
          name   span_23948; 
          from   T4152028_n; 
          to     span_23948_n; 
          phases AN; 
          length 86.825645; 
          configuration SystemCnstDefaultA__1/0AL UD; 
          } 

object node {name   span_23948_n; phases AN; nominal_voltage 120;  } 

object underground_line {
          name   span_14438; 
          from   span_15125_n; 
          to     span_14438_n; 
          phases CN; 
          length 36; 
          configuration SystemCnstDefaultC__1/0 URD; 
          } 

object node {name   span_14438_n; phases CN; nominal_voltage 7200;  } 

object node {name   SC41-3-16-A_n; phases CN; nominal_voltage 7200;  } 

object switch {
          name   SC41-3-16-A; 
          from   span_14438_n; 
          to     SC41-3-16-A_n; 
          phases CN; 
          status CLOSED; 
          } 

object underground_line {
          name   span_14439; 
          from   SC41-3-16-A_n; 
          to     span_14439_n; 
          phases CN; 
          length 56; 
          configuration SystemCnstDefaultC__1/0 URD; 
          } 

object node {name   span_14439_n; phases CN; nominal_voltage 7200;  } 

object fuse {
          name          F41-3-2; 
          from          span_14439_n; 
          to            F41-3-2_n; 
          phases        CN; 
          current_limit 92.888939; 
          mean_replacement_time 1.0 ; 
          repair_dist_type      NONE; 
          } 

object node {name   F41-3-2_n; phases CN; nominal_voltage 7200;  } 

object overhead_line {
          name   span_1816; 
          from   F41-3-2_n; 
          to     span_1816_n; 
          phases CN; 
          length 255.15205; 
          configuration SystemCnstDefaultCN__1/0 AC; 
          } 

object node {name   span_1816_n; phases CN; nominal_voltage 7200;  } 

object overhead_line {
          name   span_573; 
          from   span_1816_n; 
          to     span_573_n; 
          phases CN; 
          length 356.9191; 
          configuration SystemCnstDefaultCN__1/0 AC; 
          } 

object node {name   span_573_n; phases CN; nominal_voltage 7200;  } 

object transformer {
          name   T4151002; 
          from   span_573_n; 
          to     T4151002_n; 
          phases CN; 
          configuration SINGLE_PHASE-_10-7200To120V; 
          } 

object node {name   T4151002_n; phases CN; nominal_voltage 120;  } 

object overhead_line {
          name   span_30110; 
          from   T4151002_n; 
          to     span_30110_n; 
          phases CN; 
          length 92.386322; 
          configuration SystemCnstDefaultCN__1/0 Triplex; 
          } 

object node {name   span_30110_n; phases CN; nominal_voltage 120;  } 

object overhead_line {
          name   span_30111; 
          from   span_30110_n; 
          to     span_30111_n; 
          phases CN; 
          length 104.5864; 
          configuration SystemCnstDefaultCN__1/0 Triplex; 
          } 

object node {name   span_30111_n; phases CN; nominal_voltage 120;  } 

object overhead_line {
          name   span_9005; 
          from   span_1816_n; 
          to     span_9005_n; 
          phases CN; 
          length 158.3067; 
          configuration SystemCnstDefaultCN__1/0 AC; 
          } 

object node {name   span_9005_n; phases CN; nominal_voltage 7200;  } 

object overhead_line {
          name   span_9006; 
          from   span_9005_n; 
          to     span_9006_n; 
          phases CN; 
          length 179.23795; 
          configuration SystemCnstDefaultCN__1/0 AC; 
          } 

object node {name   span_9006_n; phases CN; nominal_voltage 7200;  } 

object overhead_line {
          name   span_9001; 
          from   span_9006_n; 
          to     span_9001_n; 
          phases CN; 
          length 297.88013; 
          configuration SystemCnstDefaultCN__1/0 AC; 
          } 

object node {name   span_9001_n; phases CN; nominal_voltage 7200;  } 

object transformer {
          name   T4151003; 
          from   span_9001_n; 
          to     T4151003_n; 
          phases CN; 
          configuration SINGLE_PHASE-_10-7200To120V; 
          } 

object node {name   T4151003_n; phases CN; nominal_voltage 120;  } 

object overhead_line {
          name   span_30115; 
          from   T4151003_n; 
          to     span_30115_n; 
          phases CN; 
          length 102.60278; 
          configuration SystemCnstDefaultCN__1/0 Triplex; 
          } 

object node {name   span_30115_n; phases CN; nominal_voltage 120;  } 

object overhead_line {
          name   span_30116; 
          from   span_30115_n; 
          to     span_30116_n; 
          phases CN; 
          length 36.880264; 
          configuration SystemCnstDefaultCN__1/0 Triplex; 
          } 

object node {name   span_30116_n; phases CN; nominal_voltage 120;  } 

object overhead_line {
          name   span_9002; 
          from   span_9001_n; 
          to     span_9002_n; 
          phases CN; 
          length 188.69641; 
          configuration SystemCnstDefaultCN__1/0 AC; 
          } 

object node {name   span_9002_n; phases CN; nominal_voltage 7200;  } 

object overhead_line {
          name   span_9003; 
          from   span_9002_n; 
          to     span_9003_n; 
          phases CN; 
          length 210.90564; 
          configuration SystemCnstDefaultCN__1/0 AC; 
          } 

object node {name   span_9003_n; phases CN; nominal_voltage 7200;  } 

object transformer {
          name   T4151008; 
          from   span_9003_n; 
          to     T4151008_n; 
          phases CN; 
          configuration SINGLE_PHASE-_10-7200To120V; 
          } 

object node {name   T4151008_n; phases CN; nominal_voltage 120;  } 

object overhead_line {
          name   span_30112; 
          from   T4151008_n; 
          to     span_30112_n; 
          phases CN; 
          length 61.147369; 
          configuration SystemCnstDefaultCN__1/0 Triplex; 
          } 

object node {name   span_30112_n; phases CN; nominal_voltage 120;  } 

object overhead_line {
          name   span_30113; 
          from   span_30112_n; 
          to     span_30113_n; 
          phases CN; 
          length 80.616249; 
          configuration SystemCnstDefaultCN__1/0 Triplex; 
          } 

object node {name   span_30113_n; phases CN; nominal_voltage 120;  } 

object transformer {
          name   T4151025; 
          from   span_9002_n; 
          to     T4151025_n; 
          phases CN; 
          configuration SINGLE_PHASE-_10-7200To120V; 
          } 

object node {name   T4151025_n; phases CN; nominal_voltage 120;  } 

object overhead_line {
          name   span_30114; 
          from   T4151025_n; 
          to     span_30114_n; 
          phases CN; 
          length 58.832062; 
          configuration SystemCnstDefaultCN__1/0 Triplex; 
          } 

object node {name   span_30114_n; phases CN; nominal_voltage 120;  } 

object overhead_line {
          name   span_2231; 
          from   span_9006_n; 
          to     span_2231_n; 
          phases CN; 
          length 217.3837; 
          configuration SystemCnstDefaultCN__1/0 AC; 
          } 

object node {name   span_2231_n; phases CN; nominal_voltage 7200;  } 

object fuse {
          name          F41-2-4; 
          from          span_2231_n; 
          to            F41-2-4_n; 
          phases        CN; 
          current_limit 35.655785; 
          mean_replacement_time 1.0 ; 
          repair_dist_type      NONE; 
          } 

object node {name   F41-2-4_n; phases CN; nominal_voltage 7200;  } 

object underground_line {
          name   span_14961; 
          from   F41-2-4_n; 
          to     span_14961_n; 
          phases CN; 
          length 432.20267; 
          configuration SystemCnstDefaultC__1/0 URD; 
          } 

object node {name   span_14961_n; phases CN; nominal_voltage 7200;  } 

object transformer {
          name   T4151024; 
          from   span_14961_n; 
          to     T4151024_n; 
          phases CN; 
          configuration SINGLE_PHASE-_15-72000To12000V; 
          } 

object node {name   T4151024_n; phases CN; nominal_voltage 12000;  } 

object underground_line {
          name   span_48472; 
          from   T4151024_n; 
          to     span_48472_n; 
          phases CN; 
          length 70.810318; 
          configuration SystemCnstDefaultC__4/0AL UG; 
          } 

object node {name   span_48472_n; phases CN; nominal_voltage 12000;  } 

object underground_line {
          name   span_48471; 
          from   T4151024_n; 
          to     span_48471_n; 
          phases CN; 
          length 66.762344; 
          configuration SystemCnstDefaultC__4/0AL UG; 
          } 

object node {name   span_48471_n; phases CN; nominal_voltage 12000;  } 

object underground_line {
          name   span_17778; 
          from   F41-2-4_n; 
          to     span_17778_n; 
          phases CN; 
          length 277.58612; 
          configuration SystemCnstDefaultC__1/0 URD; 
          } 

object node {name   span_17778_n; phases CN; nominal_voltage 7200;  } 

object transformer {
          name   T4151007; 
          from   span_17778_n; 
          to     T4151007_n; 
          phases CN; 
          configuration SINGLE_PHASE-_15-7200To120V; 
          } 

object node {name   T4151007_n; phases CN; nominal_voltage 120;  } 

object underground_line {
          name   span_48474; 
          from   serv_21203_n; 
          to     span_48474_n; 
          phases CN; 
          length 68.074532; 
          configuration SystemCnstDefaultC__4/0AL UG; 
          } 

object node {name   span_48474_n; phases CN; nominal_voltage 120;  } 

object underground_line {
          name   span_48473; 
          from   serv_21204_n; 
          to     span_48473_n; 
          phases CN; 
          length 68.653435; 
          configuration SystemCnstDefaultC__4/0AL UG; 
          } 

object node {name   span_48473_n; phases CN; nominal_voltage 120;  } 

object overhead_line {
          name   span_9010; 
          from   span_2231_n; 
          to     span_9010_n; 
          phases CN; 
          length 230.83165; 
          configuration SystemCnstDefaultCN__1/0 AC; 
          } 

object node {name   span_9010_n; phases CN; nominal_voltage 7200;  } 

object overhead_line {
          name   span_9009; 
          from   span_9010_n; 
          to     span_9009_n; 
          phases CN; 
          length 207.13525; 
          configuration SystemCnstDefaultCN__1/0 AC; 
          } 

object node {name   span_9009_n; phases CN; nominal_voltage 7200;  } 

object overhead_line {
          name   span_783; 
          from   span_9009_n; 
          to     span_783_n; 
          phases CN; 
          length 159.64102; 
          configuration SystemCnstDefaultCN__1/0 AC; 
          } 

object node {name   span_783_n; phases CN; nominal_voltage 7200;  } 

object transformer {
          name   T4151011; 
          from   span_783_n; 
          to     T4151011_n; 
          phases CN; 
          configuration SINGLE_PHASE-_15-7200To120V; 
          } 

object node {name   T4151011_n; phases CN; nominal_voltage 120;  } 

object underground_line {
          name   span_30117; 
          from   serv_21676_n; 
          to     span_30117_n; 
          phases CN; 
          length 66; 
          configuration SystemCnstDefaultC__4/0AL UG; 
          } 

object node {name   span_30117_n; phases CN; nominal_voltage 120;  } 

object overhead_line {
          name   span_30118; 
          from   T4151011_n; 
          to     span_30118_n; 
          phases CN; 
          length 38.151772; 
          configuration SystemCnstDefaultCN__1/0 Triplex; 
          } 

object node {name   span_30118_n; phases CN; nominal_voltage 120;  } 

object underground_line {
          name   span_54669; 
          from   serv_64603_n; 
          to     span_54669_n; 
          phases CN; 
          length 61.941807; 
          configuration SystemCnstDefaultC__4/0AL UG; 
          } 

object node {name   span_54669_n; phases CN; nominal_voltage 120;  } 

object overhead_line {
          name   span_3427; 
          from   span_9009_n; 
          to     span_3427_n; 
          phases CN; 
          length 172.36691; 