clock {
timezone PST+8PDT;
stoptime '2000-01-02 00:00:00';
starttime '2000-01-01 00:00:00';
};

#set minimum_timestep=60;
#set profiler=1;
#set relax_naming_rules=1;
module generators;
module tape;
module climate;
module residential {
implicit_enduses NONE;
};

module powerflow {
solver_method FBS;
NR_iteration_limit 50;
};

object climate {
name Climate;
interpolate QUADRATIC;
tmyfile climate.tmy2;
};

object node {
phases ABCN;
name GILMORE_CITY_SUBx;
bustype SWING;
nominal_voltage 7200.0;
};

object fuse {
phases ACBN;
from GILMORE_CITY_SUBx;
name RECL_650;
current_limit 9999.0 A;
to nodePROH19109RECL_650;
};

object overhead_line {
phases ACBN;
from nodePROH19109RECL_650;
name PROH19109;
to node288-25-830PROH19109;
length 1561.98;
configuration PROH15855line_configuration32701;
};

object load {
phases BN;
load_class R;
name 288-25-830;
parent node288-25-830PROH19109;
constant_power_C 100;
constant_power_A 100;
nominal_voltage 120;
constant_power_B 489.093;
};

object overhead_line {
phases ACBN;
from node288-25-830PROH19109;
name PROH19110;
to nodePRUG2977PROH19110;
length 122.15;
configuration PROH15855line_configuration32701;
};

object overhead_line {
phases ACBN;
from nodePRUG2977PROH19110;
name PROH19111;
to nodePROH19112PROH19111;
length 1168.1;
configuration PROH15855line_configuration32701;
};

object overhead_line {
phases ACBN;
from nodePROH19112PROH19111;
name PROH19112;
to node288-25-831PROH19112;
length 76.6279;
configuration PROH15855line_configuration32701;
};

object load {
phases ABCN;
load_class R;
name 288-25-831;
parent node288-25-831PROH19112;
constant_power_C 423922.0;
constant_power_A 423922.0;
nominal_voltage 120;
constant_power_B 423922.0;
};

object underground_line {
phases ACB;
from node288-25-831PROH19112;
name PRUG7031;
to nodePRUG7032PRUG7031;
length 131.433;
configuration PRUG6578line_configuration24201;
};

object underground_line {
phases ACB;
from nodePRUG7032PRUG7031;
name PRUG7032;
to nodePRUG7033PRUG7032;
length 687.798;
configuration PRUG6578line_configuration24201;
};

object capacitor {
control VOLT;
phases ABCN;
capacitor_A 0.10 MVAr;
control_level INDIVIDUAL;
name NEWCAP-FF99042C;
parent node288-25-831PROH19112;
capacitor_C 0.10 MVAr;
capacitor_B 0.10 MVAr;
phases_connected ABCN;
time_delay 300.0;
nominal_voltage 2401.7771;
voltage_set_low 2340.0;
switchC CLOSED;
switchB CLOSED;
switchA CLOSED;
pt_phase ABCN;
dwell_time 0.0;
voltage_set_high 2350.0;
};

object fuse {
phases ACBN;
from GILMORE_CITY_SUBx;
name RECL_646;
current_limit 9999.0 A;
to nodePROH8258RECL_646;
};

object overhead_line {
phases ACBN;
from nodePROH8258RECL_646;
name PROH8258;
to nodePROH13247PROH8258;
length 5557.83;
configuration PROH15855line_configuration32701;
};

object overhead_line {
phases ACBN;
from nodePROH13247PROH8258;
name PROH13247;
to nodePRUG3830PROH13247;
length 858.344;
configuration PROH15855line_configuration32701;
};

object underground_line {
phases AN;
from nodePRUG3830PROH13247;
name PRUG3830;
to node308-02-281PRUG3830;
length 381.773;
configuration PRUG6578line_configuration24201;
};

object load {
phases AN;
load_class R;
name 308-02-281;
parent node308-02-281PRUG3830;
constant_power_C 100;
constant_power_A 10196.2;
nominal_voltage 120;
constant_power_B 100;
};

object overhead_line {
phases ACBN;
from nodePRUG3830PROH13247;
name PROH13248;
to nodePROH13249PROH13248;
length 274.687;
configuration PROH15855line_configuration32701;
};

object overhead_line {
phases ACBN;
from nodePROH13249PROH13248;
name PROH13249;
to nodePROH13250PROH13249;
length 1316.66;
configuration PROH15855line_configuration32701;
};

object overhead_line {
phases ACBN;
from nodePROH13250PROH13249;
name PROH13250;
to nodePROH18922PROH13250;
length 3123.31;
configuration PROH15855line_configuration32701;
};

object overhead_line {
phases ACBN;
from nodePROH18922PROH13250;
name PROH18922;
to nodePRUG641PROH18922;
length 153.266;
configuration PROH15855line_configuration32701;
};

object underground_line {
phases AN;
from nodePRUG641PROH18922;
name PRUG641;
to node308-11-160PRUG641;
length 1221.09;
configuration PRUG6578line_configuration24201;
};

object load {
phases AN;
load_class R;
name 308-11-160;
parent node308-11-160PRUG641;
constant_power_C 100;
constant_power_A 7912.72;
nominal_voltage 120;
constant_power_B 100;
};

object overhead_line {
phases ACBN;
from nodePRUG641PROH18922;
name PROH18923;
to nodePROH13334PROH18923;
length 5162.68;
configuration PROH15855line_configuration32701;
};

object overhead_line {
phases ACBN;
from nodePROH13334PROH18923;
name PROH13334;
to nodePROH7138PROH13334;
length 1679.24;
configuration PROH15855line_configuration32701;
};

object overhead_line {
phases CN;
from nodePROH7138PROH13334;
name PROH7138;
to node308-12-840PROH7138;
length 662.722;
configuration PROH7038line_configuration8101;
};

object load {
phases CN;
load_class R;
name 308-12-840;
parent node308-12-840PROH7138;
constant_power_C 6978.14;
constant_power_A 100;
nominal_voltage 120;
constant_power_B 100;
};

object overhead_line {
phases ACBN;
from nodePROH7138PROH13334;
name PROH13335;
to nodePROH13336PROH13335;
length 2284.29;
configuration PROH15855line_configuration32701;
};

object overhead_line {
phases ACBN;
from nodePROH13336PROH13335;
name PROH13336;
to nodeSWIT_48-APROH13336;
length 909.898;
configuration PROH15855line_configuration32701;
};

object load {
phases AN;
load_class R;
name 308-13-170;
parent nodePROH13336PROH13335;
constant_power_C 100;
constant_power_A 100;
nominal_voltage 120;
constant_power_B 100;
};

object overhead_line {
phases ACBN;
from nodePROH13334PROH18923;
name PROH16414;
to nodePROH2135PROH16414;
length 838.438;
configuration PROH15855line_configuration32701;
};

object overhead_line {
phases AN;
from nodePROH2135PROH16414;
name PROH2135;
to node308-11-860PROH2135;
length 271.896;
configuration PROH11764line_configuration24501;
};

object load {
phases AN;
load_class R;
name 308-11-860;
parent node308-11-860PROH2135;
constant_power_C 100;
constant_power_A 4722.71;
nominal_voltage 120;
constant_power_B 100;
};

object overhead_line {
phases ACBN;
from nodePROH2135PROH16414;
name PROH16415;
to nodePRUG640PROH16415;
length 3554.74;
configuration PROH15855line_configuration32701;
};

object underground_line {
phases AN;
from nodePRUG640PROH16415;
name PRUG640;
to node308-14-130PRUG640;
length 222.608;
configuration PRUG6578line_configuration24201;
};

object load {
phases AN;
load_class R;
name 308-14-130;
parent node308-14-130PRUG640;
constant_power_C 100;
constant_power_A 40248.9;
nominal_voltage 120;
constant_power_B 100;
};

object overhead_line {
phases ACBN;
from nodePRUG640PROH16415;
name PROH16416;
to nodeSWIT_47-BPROH16416;
length 498.235;
configuration PROH15855line_configuration32701;
};

object switch {
status CLOSED;
phases ACBN;
from nodeSWIT_47-BPROH16416;
name SWIT_47-B;
to nodeSWIT_47-ASWIT_47-B;
};

object switch {
status CLOSED;
phases ACBN;
from nodeSWIT_47-ASWIT_47-B;
name SWIT_47-A;
to nodePROH7760SWIT_47-A;
};

object overhead_line {
phases ACBN;
from nodePROH7760SWIT_47-A;
name PROH7760;
to nodePROH7759PROH7760;
length 337.429;
configuration PROH15855line_configuration32701;
};

object overhead_line {
phases ACBN;
from nodePROH7759PROH7760;
name PROH7759;
to nodeSWIT_46-BPROH7759;
length 928.539;
configuration PROH15855line_configuration32701;
};

object overhead_line {
phases ACBN;
from nodePROH7759PROH7760;
name PROH10759;
to nodePRUG2085PROH10759;
length 3888.15;
configuration PROH15855line_configuration32701;
};

object underground_line {
phases CN;
from nodePRUG2085PROH10759;
name PRUG2085;
to node308-15-120PRUG2085;
length 882.284;
configuration PRUG6578line_configuration24201;
};

object load {
phases CN;
load_class R;
name 308-15-120;
parent node308-15-120PRUG2085;
constant_power_C 6557.59;
constant_power_A 100;
nominal_voltage 120;
constant_power_B 100;
};

object overhead_line {
phases ACBN;
from nodePRUG2085PROH10759;
name PROH10760;
to nodePROH11876PROH10760;
length 1101.27;
configuration PROH15855line_configuration32701;
};

object overhead_line {
phases ACBN;
from nodePROH11876PROH10760;
name PROH11876;
to nodePROH4626PROH11876;
length 4664.14;
configuration PROH15855line_configuration32701;
};

object overhead_line {
phases BN;
from nodePROH4626PROH11876;
name PROH4626;
to node308-16-120PROH4626;
length 372.36;
configuration PROH4629line_configuration7601;
};

object load {
phases BN;
load_class R;
name 308-16-120;
parent node308-16-120PROH4626;
constant_power_C 100;
constant_power_A 100;
nominal_voltage 120;
constant_power_B 8224.24;
};

object overhead_line {
phases ACBN;
from nodePROH4626PROH11876;
name PROH11877;
to nodePROH17413PROH11877;
length 1259.71;
configuration PROH15855line_configuration32701;
};

object overhead_line {
phases AN;
from nodePROH17413PROH11877;
name PROH17413;
to nodeFUSE_387PROH17413;
length 217.832;
configuration PROH11764line_configuration24501;
};

object fuse {
phases AN;
from nodeFUSE_387PROH17413;
name FUSE_387;
current_limit 9999.0 A;
to nodePROH17414FUSE_387;
};

object overhead_line {
phases A;
from nodePROH17414FUSE_387;
name PROH17414;
to nodePRUG586PROH17414;
length 2365.48;
configuration PROH11764line_configuration24501;
};

object underground_line {
phases A;
from nodePRUG586PROH17414;
name PRUG586;
to node308-16-410PRUG586;
length 1182.32;
configuration PRUG6578line_configuration24201;
};

object load {
phases AN;
load_class R;
name 308-16-410;
parent node308-16-410PRUG586;
constant_power_C 100;
constant_power_A 100;
nominal_voltage 120;
constant_power_B 100;
};

object overhead_line {
phases ACBN;
from nodePROH17413PROH11877;
name PROH18641;
to nodePROH18640PROH18641;
length 2377.9;
configuration PROH15855line_configuration32701;
};

object overhead_line {
phases ACBN;
from nodePROH18640PROH18641;
name PROH18640;
to nodeSWIT_45-APROH18640;
length 1219.18;
configuration PROH15855line_configuration32701;
};

object overhead_line {
phases CN;
from nodePROH18640PROH18641;
name PROH8238;
to node308-08-830PROH8238;
length 1571.76;
configuration PROH7038line_configuration8101;
};

object load {
phases CN;
load_class R;
name 308-08-830;
parent node308-08-830PROH8238;
constant_power_C 1557.62;
constant_power_A 100;
nominal_voltage 120;
constant_power_B 100;
};

object overhead_line {
phases CN;
from nodePROH17413PROH11877;
name PROH17912;
to nodeFUSE_363PROH17912;
length 601.325;
configuration PROH7038line_configuration8101;
};

object fuse {
phases CN;
from nodeFUSE_363PROH17912;
name FUSE_363;
current_limit 9999.0 A;
to nodePROH17913FUSE_363;
};

object overhead_line {
phases CN;
from nodePROH17913FUSE_363;
name PROH17913;
to node308-09-310PROH17913;
length 4529.39;
configuration PROH7038line_configuration8101;
};

object load {
phases CN;
load_class R;
name 308-09-310;
parent node308-09-310PROH17913;
constant_power_C 8320.81;
constant_power_A 100;
nominal_voltage 120;
constant_power_B 100;
};

object overhead_line {
phases ABN;
from nodePROH11876PROH10760;
name PROH11047;
to nodeFUSE_388PROH11047;
length 232.939;
configuration PROH7578line_configuration7001;
};

object fuse {
phases ABN;
from nodeFUSE_388PROH11047;
name FUSE_388;
current_limit 9999.0 A;
to nodePROH11048FUSE_388;
};

object overhead_line {
phases ABN;
from nodePROH11048FUSE_388;
name PROH11048;
to nodePROH7578PROH11048;
length 1175.64;
configuration PROH7578line_configuration7001;
};

object overhead_line {
phases ABN;
from nodePROH7578PROH11048;
name PROH7578;
to node308-16-380PROH7578;
length 1705.17;
configuration PROH7578line_configuration7001;
};

object line_configuration {
name PROH7578line_configuration7001;
conductor_A PROH15855line_configuration32701overhead_line_conductor32706;
spacing PROH15855line_configuration32701line_spacing32702;
conductor_N PROH15855line_configuration32701overhead_line_conductor32706;
conductor_C PROH11764line_configuration24501overhead_line_conductor24505;
conductor_B PROH15855line_configuration32701overhead_line_conductor32706;
};

object load {
phases ABN;
load_class R;
name 308-16-380;
parent node308-16-380PROH7578;
constant_power_C 100;
constant_power_A 10965.7;
nominal_voltage 120;
constant_power_B 10965.7;
};

object overhead_line {
phases BN;
from nodePROH7578PROH11048;
name PROH9761;
to nodePROH9762PROH9761;
length 6706.9;
configuration PROH4629line_configuration7601;
};

object overhead_line {
phases BN;
from nodePROH9762PROH9761;
name PROH9762;
to node308-27-210PROH9762;
length 2390.06;
configuration PROH4629line_configuration7601;
};

object load {
phases BN;
load_class R;
name 308-27-210;
parent node308-27-210PROH9762;
constant_power_C 100;
constant_power_A 100;
nominal_voltage 120;
constant_power_B 339.561;
};

object overhead_line {
phases BN;
from nodePROH9762PROH9761;
name PROH4629;
to node308-21-780PROH4629;
length 974.934;
configuration PROH4629line_configuration7601;
};

object line_configuration {
name PROH4629line_configuration7601;
spacing PROH15855line_configuration32701line_spacing32702;
conductor_N PROH15855line_configuration32701overhead_line_conductor32706;
conductor_A PROH11764line_configuration24501overhead_line_conductor24505;
conductor_C PROH11764line_configuration24501overhead_line_conductor24505;
conductor_B PROH15855line_configuration32701overhead_line_conductor32706;
};

object load {
phases BN;
load_class R;
name 308-21-780;
parent node308-21-780PROH4629;
constant_power_C 100;
constant_power_A 100;
nominal_voltage 120;
constant_power_B 115.264;
};

object overhead_line {
phases CN;
from nodePROH11876PROH10760;
name PROH12950;
to nodeFUSE_364PROH12950;
length 640.013;
configuration PROH7038line_configuration8101;
};

object fuse {
phases CN;
from nodeFUSE_364PROH12950;
name FUSE_364;
current_limit 9999.0 A;
to nodePROH12951FUSE_364;
};

object overhead_line {
phases CN;
from nodePROH12951FUSE_364;
name PROH12951;
to nodePROH7038PROH12951;
length 1439.55;
configuration PROH7038line_configuration8101;
};

object overhead_line {
phases CN;
from nodePROH7038PROH12951;
name PROH7038;
to node308-10-610PROH7038;
length 397.987;
configuration PROH7038line_configuration8101;
};

object line_configuration {
name PROH7038line_configuration8101;
spacing PROH15855line_configuration32701line_spacing32702;
conductor_N PROH15855line_configuration32701overhead_line_conductor32706;
conductor_A PROH11764line_configuration24501overhead_line_conductor24505;
conductor_C PROH15855line_configuration32701overhead_line_conductor32706;
conductor_B PROH11764line_configuration24501overhead_line_conductor24505;
};

object load {
phases CN;
load_class R;
name 308-10-610;
parent node308-10-610PROH7038;
constant_power_C 7130.79;
constant_power_A 100;
nominal_voltage 120;
constant_power_B 100;
};

object overhead_line {
phases CN;
from nodePROH7038PROH12951;
name PROH12952;
to nodePROH7039PROH12952;
length 3139.11;
configuration PROH7038line_configuration8101;
};

object overhead_line {
phases CN;
from nodePROH7039PROH12952;
name PROH7039;
to node308-03-810PROH7039;
length 1686.35;
configuration PROH7038line_configuration8101;
};

object load {
phases CN;
load_class R;
name 308-03-810;
parent node308-03-810PROH7039;
constant_power_C 2211.82;
constant_power_A 100;
nominal_voltage 120;
constant_power_B 100;
};

object overhead_line {
phases CN;
from nodePROH7039PROH12952;
name PROH12953;
to node308-04-750PROH12953;
length 4382.88;
configuration PROH7038line_configuration8101;
};

object load {
phases CN;
load_class R;
name 308-04-750;
parent node308-04-750PROH12953;
constant_power_C 3928.32;
constant_power_A 100;
nominal_voltage 120;
constant_power_B 100;
};

object overhead_line {
phases AN;
from nodePROH7759PROH7760;
name PROH13736;
to nodeRECL_752PROH13736;
length 716.756;
configuration PROH11764line_configuration24501;
};

object fuse {
phases AN;
from nodeRECL_752PROH13736;
name RECL_752;
current_limit 9999.0 A;
to nodePROH13737RECL_752;
};

object overhead_line {
phases AN;
from nodePROH13737RECL_752;
name PROH13737;
to nodePROH2102PROH13737;
length 3194.62;
configuration PROH11764line_configuration24501;
};

object overhead_line {
phases AN;
from nodePROH2102PROH13737;
name PROH2102;
to node308-15-780PROH2102;
length 947.905;
configuration PROH11764line_configuration24501;
};

object load {
phases AN;
load_class R;
name 308-15-780;
parent node308-15-780PROH2102;
constant_power_C 100;
constant_power_A 1943.91;
nominal_voltage 120;
constant_power_B 100;
};

object overhead_line {
phases AN;
from nodePROH2102PROH13737;
name PROH13738;
to nodePROH15340PROH13738;
length 1758.38;
configuration PROH11764line_configuration24501;
};

object overhead_line {
phases AN;
from nodePROH15340PROH13738;
name PROH15340;
to nodePROH15341PROH15340;
length 1482.39;
configuration PROH11764line_configuration24501;
};

object overhead_line {
phases AN;
from nodePROH15341PROH15340;
name PROH15341;
to nodePROH15342PROH15341;
length 647.949;
configuration PROH11764line_configuration24501;
};

object overhead_line {
phases AN;
from nodePROH15342PROH15341;
name PROH15342;
to nodePROH15343PROH15342;
length 297.189;
configuration PROH11764line_configuration24501;
};

object overhead_line {
phases AN;
from nodePROH15343PROH15342;
name PROH15343;
to nodePROH15344PROH15343;
length 1142.96;
configuration PROH11764line_configuration24501;
};

object overhead_line {
phases AN;
from nodePROH15344PROH15343;
name PROH15344;
to nodePROH1982PROH15344;
length 1440.06;
configuration PROH11764line_configuration24501;
};

object overhead_line {
phases AN;
from nodePROH1982PROH15344;
name PROH1982;
to node308-27-360PROH1982;
length 3329.9;
configuration PROH11764line_configuration24501;
};

object load {
phases AN;
load_class R;
name 308-27-360;
parent node308-27-360PROH1982;
constant_power_C 100;
constant_power_A 100;
nominal_voltage 120;
constant_power_B 100;
};

object overhead_line {
phases AN;
from nodePROH1982PROH15344;
name PROH14080;
to node308-23-860PROH14080;
length 3507.68;
configuration PROH11764line_configuration24501;
};

object load {
phases AN;
load_class R;
name 308-23-860;
parent node308-23-860PROH14080;
constant_power_C 100;
constant_power_A 1803.73;
nominal_voltage 120;
constant_power_B 100;
};

object overhead_line {
phases AN;
from node308-23-860PROH14080;
name PROH14081;
to nodePRUG588PROH14081;
length 4809.76;
configuration PROH11764line_configuration24501;
};

object underground_line {
phases AN;
from nodePRUG588PROH14081;
name PRUG588;
to node308-24-850PRUG588;
length 1101.18;
configuration PRUG6578line_configuration24201;
};

object load {
phases AN;
load_class R;
name 308-24-850;
parent node308-24-850PRUG588;
constant_power_C 100;
constant_power_A 5358.22;
nominal_voltage 120;
constant_power_B 100;
};

object overhead_line {
phases AN;
from nodePRUG588PROH14081;
name PROH14082;
to nodePROH14083PROH14082;
length 763.401;
configuration PROH11764line_configuration24501;
};

object overhead_line {
phases AN;
from nodePROH14083PROH14082;
name PROH14083;
to node308-25-141PROH14083;
length 804.157;
configuration PROH11764line_configuration24501;
};

object load {
phases AN;
load_class R;
name 308-25-141;
parent node308-25-141PROH14083;
constant_power_C 100;
constant_power_A 100;
nominal_voltage 120;
constant_power_B 100;
};

object load {
phases AN;
load_class R;
name 308-25-140;
parent nodePROH14083PROH14082;
constant_power_C 100;
constant_power_A 100;
nominal_voltage 120;
constant_power_B 100;
};

object overhead_line {
phases AN;
from nodePROH15344PROH15343;
name PROH1981;
to node308-22-670PROH1981;
length 522.838;
configuration PROH11764line_configuration24501;
};

object load {
phases AN;
load_class R;
name 308-22-670;
parent node308-22-670PROH1981;
constant_power_C 100;
constant_power_A 4009.32;
nominal_voltage 120;
constant_power_B 100;
};

object overhead_line {
phases AN;
from nodePROH15343PROH15342;
name PROH17352;
to nodePROH17353PROH17352;
length 2082.77;
configuration PROH11764line_configuration24501;
};

object overhead_line {
phases AN;
from nodePROH17353PROH17352;
name PROH1980;
to node308-23-540PROH1980;
length 1067.82;
configuration PROH11764line_configuration24501;
};

object load {
phases AN;
load_class R;
name 308-23-540;
parent node308-23-540PROH1980;
constant_power_C 100;
constant_power_A 5663.51;
nominal_voltage 120;
constant_power_B 100;
};

object underground_line {
phases AN;
from node308-23-540PROH1980;
name PRUG587;
to node308-23-541PRUG587;
length 794.699;
configuration PRUG6578line_configuration24201;
};

object load {
phases AN;
load_class R;
name 308-23-541;
parent node308-23-541PRUG587;
constant_power_C 100;
constant_power_A 180.684;
nominal_voltage 120;
constant_power_B 100;
};

object overhead_line {
phases A;
from nodePROH15342PROH15341;
name PROH8978;
to nodePRUG3618PROH8978;
length 568.209;
configuration PROH11764line_configuration24501;
};

object underground_line {
phases A;
from nodePRUG3618PROH8978;
name PRUG3618;
to node308-23-310PRUG3618;
length 417.431;
configuration PRUG6578line_configuration24201;
};

object load {
phases AN;
load_class R;
name 308-23-310;
parent node308-23-310PRUG3618;
constant_power_C 100;
constant_power_A 3962.59;
nominal_voltage 120;
constant_power_B 100;
};

object underground_line {
phases AN;
from nodePROH15341PROH15340;
name PRUG3822;
to node308-23-220PRUG3822;
length 1224.44;
configuration PRUG6578line_configuration24201;
};

object load {
phases AN;
load_class R;
name 308-23-220;
parent node308-23-220PRUG3822;
constant_power_C 100;
constant_power_A 186.915;
nominal_voltage 120;
constant_power_B 100;
};

object overhead_line {
phases BN;
from nodePROH13250PROH13249;
name PROH4728;
to node308-02-680PROH4728;
length 501.434;
configuration PROH4629line_configuration7601;
};

object load {
phases BN;
load_class R;
name 308-02-680;
parent node308-02-680PROH4728;
constant_power_C 100;
constant_power_A 100;
nominal_voltage 120;
constant_power_B 100;
};

object load {
phases CN;
load_class R;
name 308-02-280;
parent nodePROH13249PROH13248;
constant_power_C 5358.22;
constant_power_A 100;
nominal_voltage 120;
constant_power_B 100;
};

object fuse {
phases ACB;
from GILMORE_CITY_SUBx;
name RECL_649;
current_limit 9999.0 A;
to nodePRUG5601RECL_649;
};

object underground_line {
phases ACB;
from nodePRUG5601RECL_649;
name PRUG5601;
to node288-26-870PRUG5601;
length 1831.47;
configuration PRUG6578line_configuration24201;
};

object load {
phases AN;
load_class R;
name 288-26-870;
parent node288-26-870PRUG5601;
constant_power_C 100;
constant_power_A 100;
nominal_voltage 120;
constant_power_B 100;
};

object underground_line {
phases ACBN;
from node288-26-870PRUG5601;
name PRUG5602;
to nodePROH12251PRUG5602;
length 3759.11;
configuration PRUG6578line_configuration24201;
};

object overhead_line {
phases ACBN;
from nodePROH12251PRUG5602;
name PROH12251;
to nodePROH12252PROH12251;
length 3141.69;
configuration PROH15855line_configuration32701;
};

object overhead_line {
phases ACBN;
from nodePROH12252PROH12251;
name PROH12252;
to nodePROH7762PROH12252;
length 1519.48;
configuration PROH15855line_configuration32701;
};

object overhead_line {
phases ACBN;
from nodePROH7762PROH12252;
name PROH7762;
to nodePROH17832PROH7762;
length 135.442;
configuration PROH15855line_configuration32701;
};

object overhead_line {
phases ACBN;
from nodePROH17832PROH7762;
name PROH17832;
to node288-23-710PROH17832;
length 273.779;
configuration PROH15855line_configuration32701;
};

object load {
phases CN;
load_class R;
name 288-23-710;
parent node288-23-710PROH17832;
constant_power_C 2869.14;
constant_power_A 100;
nominal_voltage 120;
constant_power_B 100;
};

object overhead_line {
phases ACBN;
from node288-23-710PROH17832;
name PROH17833;
to nodePROH18866PROH17833;
length 4965.17;
configuration PROH15855line_configuration32701;
};

object overhead_line {
phases BN;
from nodePROH18866PROH17833;
name PROH18866;
to nodeFUSE_338PROH18866;
length 268.075;
configuration PROH4629line_configuration7601;
};

object fuse {
phases BN;
from nodeFUSE_338PROH18866;
name FUSE_338;
current_limit 9999.0 A;
to nodePROH18867FUSE_338;
};

object overhead_line {
phases BN;
from nodePROH18867FUSE_338;
name PROH18867;
to nodePROH4782PROH18867;
length 890.141;
configuration PROH4629line_configuration7601;
};

object overhead_line {
phases BN;
from nodePROH4782PROH18867;
name PROH4782;
to node288-23-240PROH4782;
length 905.624;
configuration PROH4629line_configuration7601;
};

object load {
phases BN;
load_class R;
name 288-23-240;
parent node288-23-240PROH4782;
constant_power_C 100;
constant_power_A 100;
nominal_voltage 120;
constant_power_B 1666.65;
};

object overhead_line {
phases BN;
from nodePROH4782PROH18867;
name PROH18868;
to nodePROH4783PROH18868;
length 2296.79;
configuration PROH4629line_configuration7601;
};

object overhead_line {
phases BN;
from nodePROH4783PROH18868;
name PROH4783;
to node288-14-760PROH4783;
length 977.49;
configuration PROH4629line_configuration7601;
};

object load {
phases BN;
load_class R;
name 288-14-760;
parent node288-14-760PROH4783;
constant_power_C 100;
constant_power_A 100;
nominal_voltage 120;
constant_power_B 623.048;
};

object overhead_line {
phases BN;
from nodePROH4783PROH18868;
name PROH18869;
to nodePROH18870PROH18869;
length 474.985;
configuration PROH4629line_configuration7601;
};

object overhead_line {
phases BN;
from nodePROH18870PROH18869;
name PROH18870;
to nodePROH11284PROH18870;
length 1693.46;
configuration PROH4629line_configuration7601;
};

object overhead_line {
phases BN;
from nodePROH11284PROH18870;
name PROH11284;
to nodePROH11285PROH11284;
length 208.431;
configuration PROH4629line_configuration7601;
};

object overhead_line {
phases BN;
from nodePROH11285PROH11284;
name PROH11285;
to node288-24-380PROH11285;
length 1264.87;
configuration PROH4629line_configuration7601;
};

object load {
phases BN;
load_class R;
name 288-24-380;
parent node288-24-380PROH11285;
constant_power_C 100;
constant_power_A 100;
nominal_voltage 120;
constant_power_B 100;
};

object load {
phases BN;
load_class R;
name 288-24-210;
parent nodePROH11285PROH11284;
constant_power_C 100;
constant_power_A 100;
nominal_voltage 120;
constant_power_B 100;
};

object overhead_line {
phases BN;
from nodePROH11284PROH18870;
name PROH18871;
to nodePROH18872PROH18871;
length 1796.33;
configuration PROH4629line_configuration7601;
};

object overhead_line {
phases BN;
from nodePROH18872PROH18871;
name PROH4785;
to node288-13-841PROH4785;
length 443.274;
configuration PROH4629line_configuration7601;
};

object load {
phases BN;
load_class R;
name 288-13-841;
parent node288-13-841PROH4785;
constant_power_C 100;
constant_power_A 100;
nominal_voltage 120;
constant_power_B 2476.62;
};

object overhead_line {
phases BN;
from nodePROH18870PROH18869;
name PROH4784;
to node288-23-170PROH4784;
length 522.4;
configuration PROH4629line_configuration7601;
};

object load {
phases BN;
load_class R;
name 288-23-170;
parent node288-23-170PROH4784;
constant_power_C 100;
constant_power_A 100;
nominal_voltage 120;
constant_power_B 3598.11;
};

object overhead_line {
phases ACBN;
from nodePROH18866PROH17833;
name PROH7763;
to nodePROH7655PROH7763;
length 88.1115;
configuration PROH15855line_configuration32701;
};

object overhead_line {
phases ACN;
from nodePROH7655PROH7763;
name PROH7655;
to nodePROH7587PROH7655;
length 5211.47;
configuration PROH7587line_configuration15801;
};

object overhead_line {
phases ACN;
from nodePROH7587PROH7655;
name PROH7587;
to nodePROH17363PROH7587;
length 695.845;
configuration PROH7587line_configuration15801;
};

object line_configuration {
name PROH7587line_configuration15801;
conductor_A PROH15855line_configuration32701overhead_line_conductor32706;
spacing PROH15855line_configuration32701line_spacing32702;
conductor_N PROH15855line_configuration32701overhead_line_conductor32706;
conductor_C PROH15855line_configuration32701overhead_line_conductor32706;
conductor_B PROH11764line_configuration24501overhead_line_conductor24505;
};

object overhead_line {
phases CN;
from nodePROH17363PROH7587;
name PROH17363;
to nodeFUSE_317PROH17363;
length 623.153;
configuration PROH7038line_configuration8101;
};

object fuse {
phases CN;
from nodeFUSE_317PROH17363;
name FUSE_317;
current_limit 9999.0 A;
to nodePROH17364FUSE_317;
};

object overhead_line {
phases CN;
from nodePROH17364FUSE_317;
name PROH17364;
to nodePROH7192PROH17364;
length 1698.58;
configuration PROH7038line_configuration8101;
};

object overhead_line {
phases CN;
from nodePROH7192PROH17364;
name PROH7192;
to node288-14-130PROH7192;
length 1141.83;
configuration PROH7038line_configuration8101;
};

object load {
phases CN;
load_class R;
name 288-14-130;
parent node288-14-130PROH7192;
constant_power_C 7102.75;
constant_power_A 100;
nominal_voltage 120;
constant_power_B 100;
};

object overhead_line {
phases CN;
from nodePROH7192PROH17364;
name PROH17365;
to nodePROH17366PROH17365;
length 4036.55;
configuration PROH7038line_configuration8101;
};

object overhead_line {
phases CN;
from nodePROH17366PROH17365;
name PROH17366;
to nodePROH17367PROH17366;
length 2541.88;
configuration PROH7038line_configuration8101;
};

object overhead_line {
phases CN;
from nodePROH17367PROH17366;
name PROH17367;
to node288-13-350PROH17367;
length 1704.12;
configuration PROH7038line_configuration8101;
};

object load {
phases CN;
load_class R;
name 288-13-350;
parent node288-13-350PROH17367;
constant_power_C 100;
constant_power_A 100;
nominal_voltage 120;
constant_power_B 100;
};

object load {
phases CN;
load_class R;
name 288-12-850;
parent nodePROH17367PROH17366;
constant_power_C 6386.25;
constant_power_A 100;
nominal_voltage 120;
constant_power_B 100;
};

object underground_line {
phases CN;
from nodePROH17366PROH17365;
name PRUG2119;
to node288-13-110PRUG2119;
length 1087.44;
configuration PRUG6578line_configuration24201;
};

object load {
phases CN;
load_class R;
name 288-13-110;
parent node288-13-110PRUG2119;
constant_power_C 37632.1;
constant_power_A 100;
nominal_voltage 120;
constant_power_B 100;
};
