clock {
timezone PST+8PDT;
stoptime '2000-01-02 00:00:00';
starttime '2000-01-01 00:00:00';
};

#set minimum_timestep=60;
#set profiler=1;
#set relax_naming_rules=1;
module generators;
module tape;
module climate;
module residential {
implicit_enduses NONE;
};

module powerflow {
solver_method FBS;
NR_iteration_limit 50;
};

object climate {
name Climate;
interpolate QUADRATIC;
tmyfile climate.tmy2;
};

object node {
phases ABCN;
name GILMORE_CITY_SUBx;
bustype SWING;
nominal_voltage 2400;
};

object fuse {
phases ACBN;
from GILMORE_CITY_SUBx;
name RECL_650;
current_limit 9999.0 A;
to nodePROH19109RECL_650;
};

object overhead_line {
configuration object line_configuration {
spacing object line_spacing {
distance_BC 7.0;
name PROH19109-LINESPACING;
distance_CN 5.0;
distance_AC 4.5;
distance_AN 4.272002;
distance_AB 2.5;
distance_BN 5.656854;
};
conductor_A object overhead_line_conductor {
resistance 0;
geometric_mean_radius 0;
};
conductor_B object overhead_line_conductor {
resistance 0;
geometric_mean_radius 0;
};
name PROH19109-LINECONFIG;
conductor_N object overhead_line_conductor {
resistance 0;
geometric_mean_radius 0;
};
conductor_C object overhead_line_conductor {
resistance 0;
geometric_mean_radius 0;
};
};
phases ACBN;
from nodePROH19109RECL_650;
name PROH19109;
to node288-25-830PROH19109;
length 1561.98;
};

object load {
phases BN;
load_class R;
name 288-25-830;
parent node288-25-830PROH19109;
constant_power_C 100;
constant_power_A 100;
nominal_voltage 120;
constant_power_B 489.093;
};

object overhead_line {
configuration object line_configuration {
spacing object line_spacing {
distance_BC 7.0;
name PROH19110-LINESPACING;
distance_CN 5.0;
distance_AC 4.5;
distance_AN 4.272002;
distance_AB 2.5;
distance_BN 5.656854;
};
conductor_A object overhead_line_conductor {
resistance 0;
geometric_mean_radius 0;
};
conductor_B object overhead_line_conductor {
resistance 0;
geometric_mean_radius 0;
};
name PROH19110-LINECONFIG;
conductor_N object overhead_line_conductor {
resistance 0;
geometric_mean_radius 0;
};
conductor_C object overhead_line_conductor {
resistance 0;
geometric_mean_radius 0;
};
};
phases ACBN;
from node288-25-830PROH19109;
name PROH19110;
to nodePRUG2977PROH19110;
length 122.15;
};

object overhead_line {
configuration object line_configuration {
spacing object line_spacing {
distance_BC 7.0;
name PROH19111-LINESPACING;
distance_CN 5.0;
distance_AC 4.5;
distance_AN 4.272002;
distance_AB 2.5;
distance_BN 5.656854;
};
conductor_A object overhead_line_conductor {
resistance 0;
geometric_mean_radius 0;
};
conductor_B object overhead_line_conductor {
resistance 0;
geometric_mean_radius 0;
};
name PROH19111-LINECONFIG;
conductor_N object overhead_line_conductor {
resistance 0;
geometric_mean_radius 0;
};
conductor_C object overhead_line_conductor {
resistance 0;
geometric_mean_radius 0;
};
};
phases ACBN;
from nodePRUG2977PROH19110;
name PROH19111;
to nodePROH19112PROH19111;
length 1168.1;
};

object overhead_line {
configuration object line_configuration {
spacing object line_spacing {
distance_BC 7.0;
name PROH19112-LINESPACING;
distance_CN 5.0;
distance_AC 4.5;
distance_AN 4.272002;
distance_AB 2.5;
distance_BN 5.656854;
};
conductor_A object overhead_line_conductor {
resistance 0;
geometric_mean_radius 0;
};
conductor_B object overhead_line_conductor {
resistance 0;
geometric_mean_radius 0;
};
name PROH19112-LINECONFIG;
conductor_N object overhead_line_conductor {
resistance 0;
geometric_mean_radius 0;
};
conductor_C object overhead_line_conductor {
resistance 0;
geometric_mean_radius 0;
};
};
phases ACBN;
from nodePROH19112PROH19111;
name PROH19112;
to node288-25-831PROH19112;
length 76.6279;
};

object load {
phases ABCN;
load_class R;
name 288-25-831;
parent node288-25-831PROH19112;
constant_power_C 423922.0;
constant_power_A 423922.0;
nominal_voltage 120;
constant_power_B 423922.0;
};

object underground_line {
configuration object line_configuration {
spacing object line_spacing {
distance_AN 0.000000;
name PRUG7031-LINESPACING;
distance_CN 0.000000;
distance_BN 0.000000;
distance_BC 0.500000;
distance_AB 0.500000;
distance_AC 1.000000;
};
conductor_A object underground_line_conductor {
conductor_gmr 0.008830;
conductor_resistance 1.540000;
shield_resistance 0.000000;
neutral_gmr 0.002080;
neutral_strands 6.000000;
conductor_diameter 0.292000;
name PRUG7031-PHASEA;
outer_diameter 0.980000;
neutral_resistance 14.872000;
neutral_diameter 0.064000;
shield_gmr 0.000000;
};
conductor_B object underground_line_conductor {
conductor_gmr 0.008830;
conductor_resistance 1.540000;
shield_resistance 0.000000;
neutral_gmr 0.002080;
neutral_strands 6.000000;
conductor_diameter 0.292000;
name PRUG7031-PHASEB;
outer_diameter 0.980000;
neutral_resistance 14.872000;
neutral_diameter 0.064000;
shield_gmr 0.000000;
};
name PRUG7031-LINECONFIG;
conductor_N object underground_line_conductor {
conductor_gmr 0.008830;
conductor_resistance 1.540000;
shield_resistance 0.000000;
neutral_gmr 0.002080;
neutral_strands 6.000000;
conductor_diameter 0.292000;
name PRUG7031-PHASEN;
outer_diameter 0.980000;
neutral_resistance 14.872000;
neutral_diameter 0.064000;
shield_gmr 0.000000;
};
conductor_C object underground_line_conductor {
conductor_gmr 0.008830;
conductor_resistance 1.540000;
shield_resistance 0.000000;
neutral_gmr 0.002080;
neutral_strands 6.000000;
conductor_diameter 0.292000;
name PRUG7031-PHASEC;
outer_diameter 0.980000;
neutral_resistance 14.872000;
neutral_diameter 0.064000;
shield_gmr 0.000000;
};
};
phases ACB;
from node288-25-831PROH19112;
name PRUG7031;
to nodePRUG7032PRUG7031;
length 131.433;
};

object underground_line {
configuration object line_configuration {
spacing object line_spacing {
distance_AN 0.000000;
name PRUG7032-LINESPACING;
distance_CN 0.000000;
distance_BN 0.000000;
distance_BC 0.500000;
distance_AB 0.500000;
distance_AC 1.000000;
};
conductor_A object underground_line_conductor {
conductor_gmr 0.008830;
conductor_resistance 1.540000;
shield_resistance 0.000000;
neutral_gmr 0.002080;
neutral_strands 6.000000;
conductor_diameter 0.292000;
name PRUG7032-PHASEA;
outer_diameter 0.980000;
neutral_resistance 14.872000;
neutral_diameter 0.064000;
shield_gmr 0.000000;
};
conductor_B object underground_line_conductor {
conductor_gmr 0.008830;
conductor_resistance 1.540000;
shield_resistance 0.000000;
neutral_gmr 0.002080;
neutral_strands 6.000000;
conductor_diameter 0.292000;
name PRUG7032-PHASEB;
outer_diameter 0.980000;
neutral_resistance 14.872000;
neutral_diameter 0.064000;
shield_gmr 0.000000;
};
name PRUG7032-LINECONFIG;
conductor_N object underground_line_conductor {
conductor_gmr 0.008830;
conductor_resistance 1.540000;
shield_resistance 0.000000;
neutral_gmr 0.002080;
neutral_strands 6.000000;
conductor_diameter 0.292000;
name PRUG7032-PHASEN;
outer_diameter 0.980000;
neutral_resistance 14.872000;
neutral_diameter 0.064000;
shield_gmr 0.000000;
};
conductor_C object underground_line_conductor {
conductor_gmr 0.008830;
conductor_resistance 1.540000;
shield_resistance 0.000000;
neutral_gmr 0.002080;
neutral_strands 6.000000;
conductor_diameter 0.292000;
name PRUG7032-PHASEC;
outer_diameter 0.980000;
neutral_resistance 14.872000;
neutral_diameter 0.064000;
shield_gmr 0.000000;
};
};
phases ACB;
from nodePRUG7032PRUG7031;
name PRUG7032;
to nodePRUG7033PRUG7032;
length 687.798;
};

object capacitor {
control VOLT;
phases ABCN;
capacitor_A 0.10 MVAr;
control_level INDIVIDUAL;
name NEWCAP-FF99042C;
parent node288-25-831PROH19112;
capacitor_C 0.10 MVAr;
capacitor_B 0.10 MVAr;
phases_connected ABCN;
time_delay 300.0;
nominal_voltage 2401.7771;
voltage_set_low 2340.0;
switchC CLOSED;
switchB CLOSED;
switchA CLOSED;
pt_phase ABCN;
dwell_time 0.0;
voltage_set_high 2350.0;
};

object fuse {
phases ACBN;
from GILMORE_CITY_SUBx;
name RECL_646;
current_limit 9999.0 A;
to nodePROH8258RECL_646;
};

object overhead_line {
configuration object line_configuration {
spacing object line_spacing {
distance_BC 7.0;
name PROH8258-LINESPACING;
distance_CN 5.0;
distance_AC 4.5;
distance_AN 4.272002;
distance_AB 2.5;
distance_BN 5.656854;
};
conductor_A object overhead_line_conductor {
resistance 0;
geometric_mean_radius 0;
};
conductor_B object overhead_line_conductor {
resistance 0;
geometric_mean_radius 0;
};
name PROH8258-LINECONFIG;
conductor_N object overhead_line_conductor {
resistance 0;
geometric_mean_radius 0;
};
conductor_C object overhead_line_conductor {
resistance 0;
geometric_mean_radius 0;
};
};
phases ACBN;
from nodePROH8258RECL_646;
name PROH8258;
to nodePROH13247PROH8258;
length 5557.83;
};

object overhead_line {
configuration object line_configuration {
spacing object line_spacing {
distance_BC 7.0;
name PROH13247-LINESPACING;
distance_CN 5.0;
distance_AC 4.5;
distance_AN 4.272002;
distance_AB 2.5;
distance_BN 5.656854;
};
conductor_A object overhead_line_conductor {
resistance 0;
geometric_mean_radius 0;
};
conductor_B object overhead_line_conductor {
resistance 0;
geometric_mean_radius 0;
};
name PROH13247-LINECONFIG;
conductor_N object overhead_line_conductor {
resistance 0;
geometric_mean_radius 0;
};
conductor_C object overhead_line_conductor {
resistance 0;
geometric_mean_radius 0;
};
};
phases ACBN;
from nodePROH13247PROH8258;
name PROH13247;
to nodePRUG3830PROH13247;
length 858.344;
};

object underground_line {
configuration object line_configuration {
spacing object line_spacing {
distance_AN 0.000000;
name PRUG3830-LINESPACING;
distance_CN 0.000000;
distance_BN 0.000000;
distance_BC 0.500000;
distance_AB 0.500000;
distance_AC 1.000000;
};
conductor_A object underground_line_conductor {
conductor_gmr 0.008830;
conductor_resistance 1.540000;
shield_resistance 0.000000;
neutral_gmr 0.002080;
neutral_strands 6.000000;
conductor_diameter 0.292000;
name PRUG3830-PHASEA;
outer_diameter 0.980000;
neutral_resistance 14.872000;
neutral_diameter 0.064000;
shield_gmr 0.000000;
};
conductor_B object underground_line_conductor {
conductor_gmr 0.008830;
conductor_resistance 1.540000;
shield_resistance 0.000000;
neutral_gmr 0.002080;
neutral_strands 6.000000;
conductor_diameter 0.292000;
name PRUG3830-PHASEB;
outer_diameter 0.980000;
neutral_resistance 14.872000;
neutral_diameter 0.064000;
shield_gmr 0.000000;
};
name PRUG3830-LINECONFIG;
conductor_N object underground_line_conductor {
conductor_gmr 0.008830;
conductor_resistance 1.540000;
shield_resistance 0.000000;
neutral_gmr 0.002080;
neutral_strands 6.000000;
conductor_diameter 0.292000;
name PRUG3830-PHASEN;
outer_diameter 0.980000;
neutral_resistance 14.872000;
neutral_diameter 0.064000;
shield_gmr 0.000000;
};
conductor_C object underground_line_conductor {
conductor_gmr 0.008830;
conductor_resistance 1.540000;
shield_resistance 0.000000;
neutral_gmr 0.002080;
neutral_strands 6.000000;
conductor_diameter 0.292000;
name PRUG3830-PHASEC;
outer_diameter 0.980000;
neutral_resistance 14.872000;
neutral_diameter 0.064000;
shield_gmr 0.000000;
};
};
phases AN;
from nodePRUG3830PROH13247;
name PRUG3830;
to node308-02-281PRUG3830;
length 381.773;
};

object load {
phases AN;
load_class R;
name 308-02-281;
parent node308-02-281PRUG3830;
constant_power_C 100;
constant_power_A 10196.2;
nominal_voltage 120;
constant_power_B 100;
};

object overhead_line {
configuration object line_configuration {
spacing object line_spacing {
distance_BC 7.0;
name PROH13248-LINESPACING;
distance_CN 5.0;
distance_AC 4.5;
distance_AN 4.272002;
distance_AB 2.5;
distance_BN 5.656854;
};
conductor_A object overhead_line_conductor {
resistance 0;
geometric_mean_radius 0;
};
conductor_B object overhead_line_conductor {
resistance 0;
geometric_mean_radius 0;
};
name PROH13248-LINECONFIG;
conductor_N object overhead_line_conductor {
resistance 0;
geometric_mean_radius 0;
};
conductor_C object overhead_line_conductor {
resistance 0;
geometric_mean_radius 0;
};
};
phases ACBN;
from nodePRUG3830PROH13247;
name PROH13248;
to nodePROH13249PROH13248;
length 274.687;
};

object overhead_line {
configuration object line_configuration {
spacing object line_spacing {
distance_BC 7.0;
name PROH13249-LINESPACING;
distance_CN 5.0;
distance_AC 4.5;
distance_AN 4.272002;
distance_AB 2.5;
distance_BN 5.656854;
};
conductor_A object overhead_line_conductor {
resistance 0;
geometric_mean_radius 0;
};
conductor_B object overhead_line_conductor {
resistance 0;
geometric_mean_radius 0;
};
name PROH13249-LINECONFIG;
conductor_N object overhead_line_conductor {
resistance 0;
geometric_mean_radius 0;
};
conductor_C object overhead_line_conductor {
resistance 0;
geometric_mean_radius 0;
};
};
phases ACBN;
from nodePROH13249PROH13248;
name PROH13249;
to nodePROH13250PROH13249;
length 1316.66;
};

object overhead_line {
configuration object line_configuration {
spacing object line_spacing {
distance_BC 7.0;
name PROH13250-LINESPACING;
distance_CN 5.0;
distance_AC 4.5;
distance_AN 4.272002;
distance_AB 2.5;
distance_BN 5.656854;
};
conductor_A object overhead_line_conductor {
resistance 0;
geometric_mean_radius 0;
};
conductor_B object overhead_line_conductor {
resistance 0;
geometric_mean_radius 0;
};
name PROH13250-LINECONFIG;
conductor_N object overhead_line_conductor {
resistance 0;
geometric_mean_radius 0;
};
conductor_C object overhead_line_conductor {
resistance 0;
geometric_mean_radius 0;
};
};
phases ACBN;
from nodePROH13250PROH13249;
name PROH13250;
to nodePROH18922PROH13250;
length 3123.31;
};

object overhead_line {
configuration object line_configuration {
spacing object line_spacing {
distance_BC 7.0;
name PROH18922-LINESPACING;
distance_CN 5.0;
distance_AC 4.5;
distance_AN 4.272002;
distance_AB 2.5;
distance_BN 5.656854;
};
conductor_A object overhead_line_conductor {
resistance 0;
geometric_mean_radius 0;
};
conductor_B object overhead_line_conductor {
resistance 0;
geometric_mean_radius 0;
};
name PROH18922-LINECONFIG;
conductor_N object overhead_line_conductor {
resistance 0;
geometric_mean_radius 0;
};
conductor_C object overhead_line_conductor {
resistance 0;
geometric_mean_radius 0;
};
};
phases ACBN;
from nodePROH18922PROH13250;
name PROH18922;
to nodePRUG641PROH18922;
length 153.266;
};

object underground_line {
configuration object line_configuration {
spacing object line_spacing {
distance_AN 0.000000;
name PRUG641-LINESPACING;
distance_CN 0.000000;
distance_BN 0.000000;
distance_BC 0.500000;
distance_AB 0.500000;
distance_AC 1.000000;
};
conductor_A object underground_line_conductor {
conductor_gmr 0.008830;
conductor_resistance 1.540000;
shield_resistance 0.000000;
neutral_gmr 0.002080;
neutral_strands 6.000000;
conductor_diameter 0.292000;
name PRUG641-PHASEA;
outer_diameter 0.980000;
neutral_resistance 14.872000;
neutral_diameter 0.064000;
shield_gmr 0.000000;
};
conductor_B object underground_line_conductor {
conductor_gmr 0.008830;
conductor_resistance 1.540000;
shield_resistance 0.000000;
neutral_gmr 0.002080;
neutral_strands 6.000000;
conductor_diameter 0.292000;
name PRUG641-PHASEB;
outer_diameter 0.980000;
neutral_resistance 14.872000;
neutral_diameter 0.064000;
shield_gmr 0.000000;
};
name PRUG641-LINECONFIG;
conductor_N object underground_line_conductor {
conductor_gmr 0.008830;
conductor_resistance 1.540000;
shield_resistance 0.000000;
neutral_gmr 0.002080;
neutral_strands 6.000000;
conductor_diameter 0.292000;
name PRUG641-PHASEN;
outer_diameter 0.980000;
neutral_resistance 14.872000;
neutral_diameter 0.064000;
shield_gmr 0.000000;
};
conductor_C object underground_line_conductor {
conductor_gmr 0.008830;
conductor_resistance 1.540000;
shield_resistance 0.000000;
neutral_gmr 0.002080;
neutral_strands 6.000000;
conductor_diameter 0.292000;
name PRUG641-PHASEC;
outer_diameter 0.980000;
neutral_resistance 14.872000;
neutral_diameter 0.064000;
shield_gmr 0.000000;
};
};
phases AN;
from nodePRUG641PROH18922;
name PRUG641;
to node308-11-160PRUG641;
length 1221.09;
};

object load {
phases AN;
load_class R;
name 308-11-160;
parent node308-11-160PRUG641;
constant_power_C 100;
constant_power_A 7912.72;
nominal_voltage 120;
constant_power_B 100;
};

object overhead_line {
configuration object line_configuration {
spacing object line_spacing {
distance_BC 7.0;
name PROH18923-LINESPACING;
distance_CN 5.0;
distance_AC 4.5;
distance_AN 4.272002;
distance_AB 2.5;
distance_BN 5.656854;
};
conductor_A object overhead_line_conductor {
resistance 0;
geometric_mean_radius 0;
};
conductor_B object overhead_line_conductor {
resistance 0;
geometric_mean_radius 0;
};
name PROH18923-LINECONFIG;
conductor_N object overhead_line_conductor {
resistance 0;
geometric_mean_radius 0;
};
conductor_C object overhead_line_conductor {
resistance 0;
geometric_mean_radius 0;
};
};
phases ACBN;
from nodePRUG641PROH18922;
name PROH18923;
to nodePROH13334PROH18923;
length 5162.68;
};

object overhead_line {
configuration object line_configuration {
spacing object line_spacing {
distance_BC 7.0;
name PROH13334-LINESPACING;
distance_CN 5.0;
distance_AC 4.5;
distance_AN 4.272002;
distance_AB 2.5;
distance_BN 5.656854;
};
conductor_A object overhead_line_conductor {
resistance 0;
geometric_mean_radius 0;
};
conductor_B object overhead_line_conductor {
resistance 0;
geometric_mean_radius 0;
};
name PROH13334-LINECONFIG;
conductor_N object overhead_line_conductor {
resistance 0;
geometric_mean_radius 0;
};
conductor_C object overhead_line_conductor {
resistance 0;
geometric_mean_radius 0;
};
};
phases ACBN;
from nodePROH13334PROH18923;
name PROH13334;
to nodePROH7138PROH13334;
length 1679.24;
};

object overhead_line {
configuration object line_configuration {
spacing object line_spacing {
distance_BC 7.0;
name PROH7138-LINESPACING;
distance_CN 5.0;
distance_AC 4.5;
distance_AN 4.272002;
distance_AB 2.5;
distance_BN 5.656854;
};
conductor_A object overhead_line_conductor {
resistance 0.185900;
geometric_mean_radius 0.031300;
};
conductor_B object overhead_line_conductor {
resistance 0.185900;
geometric_mean_radius 0.031300;
};
name PROH7138-LINECONFIG;
conductor_N object overhead_line_conductor {
resistance 0;
geometric_mean_radius 0;
};
conductor_C object overhead_line_conductor {
resistance 0;
geometric_mean_radius 0;
};
};
phases CN;
from nodePROH7138PROH13334;
name PROH7138;
to node308-12-840PROH7138;
length 662.722;
};

object load {
phases CN;
load_class R;
name 308-12-840;
parent node308-12-840PROH7138;
constant_power_C 6978.14;
constant_power_A 100;
nominal_voltage 120;
constant_power_B 100;
};

object overhead_line {
configuration object line_configuration {
spacing object line_spacing {
distance_BC 7.0;
name PROH13335-LINESPACING;
distance_CN 5.0;
distance_AC 4.5;
distance_AN 4.272002;
distance_AB 2.5;
distance_BN 5.656854;
};
conductor_A object overhead_line_conductor {
resistance 0;
geometric_mean_radius 0;
};
conductor_B object overhead_line_conductor {
resistance 0;
geometric_mean_radius 0;
};
name PROH13335-LINECONFIG;
conductor_N object overhead_line_conductor {
resistance 0;
geometric_mean_radius 0;
};
conductor_C object overhead_line_conductor {
resistance 0;
geometric_mean_radius 0;
};
};
phases ACBN;
from nodePROH7138PROH13334;
name PROH13335;
to nodePROH13336PROH13335;
length 2284.29;
};

object overhead_line {
configuration object line_configuration {
spacing object line_spacing {
distance_BC 7.0;
name PROH13336-LINESPACING;
distance_CN 5.0;
distance_AC 4.5;
distance_AN 4.272002;
distance_AB 2.5;
distance_BN 5.656854;
};
conductor_A object overhead_line_conductor {
resistance 0;
geometric_mean_radius 0;
};
conductor_B object overhead_line_conductor {
resistance 0;
geometric_mean_radius 0;
};
name PROH13336-LINECONFIG;
conductor_N object overhead_line_conductor {
resistance 0;
geometric_mean_radius 0;
};
conductor_C object overhead_line_conductor {
resistance 0;
geometric_mean_radius 0;
};
};
phases ACBN;
from nodePROH13336PROH13335;
name PROH13336;
to nodeSWIT_48-APROH13336;
length 909.898;
};

object load {
phases AN;
load_class R;
name 308-13-170;
parent nodePROH13336PROH13335;
constant_power_C 100;
constant_power_A 100;
nominal_voltage 120;
constant_power_B 100;
};

object overhead_line {
configuration object line_configuration {
spacing object line_spacing {
distance_BC 7.0;
name PROH16414-LINESPACING;
distance_CN 5.0;
distance_AC 4.5;
distance_AN 4.272002;
distance_AB 2.5;
distance_BN 5.656854;
};
conductor_A object overhead_line_conductor {
resistance 0;
geometric_mean_radius 0;
};
conductor_B object overhead_line_conductor {
resistance 0;
geometric_mean_radius 0;
};
name PROH16414-LINECONFIG;
conductor_N object overhead_line_conductor {
resistance 0;
geometric_mean_radius 0;
};
conductor_C object overhead_line_conductor {
resistance 0;
geometric_mean_radius 0;
};
};
phases ACBN;
from nodePROH13334PROH18923;
name PROH16414;
to nodePROH2135PROH16414;
length 838.438;
};

object overhead_line {
configuration object line_configuration {
spacing object line_spacing {
distance_BC 7.0;
name PROH2135-LINESPACING;
distance_CN 5.0;
distance_AC 4.5;
distance_AN 4.272002;
distance_AB 2.5;
distance_BN 5.656854;
};
conductor_A object overhead_line_conductor {
resistance 0;
geometric_mean_radius 0;
};
conductor_B object overhead_line_conductor {
resistance 0.185900;
geometric_mean_radius 0.031300;
};
name PROH2135-LINECONFIG;
conductor_N object overhead_line_conductor {
resistance 0;
geometric_mean_radius 0;
};
conductor_C object overhead_line_conductor {
resistance 0.185900;
geometric_mean_radius 0.031300;
};
};
phases AN;
from nodePROH2135PROH16414;
name PROH2135;
to node308-11-860PROH2135;
length 271.896;
};

object load {
phases AN;
load_class R;
name 308-11-860;
parent node308-11-860PROH2135;
constant_power_C 100;
constant_power_A 4722.71;
nominal_voltage 120;
constant_power_B 100;
};

object overhead_line {
configuration object line_configuration {
spacing object line_spacing {
distance_BC 7.0;
name PROH16415-LINESPACING;
distance_CN 5.0;
distance_AC 4.5;
distance_AN 4.272002;
distance_AB 2.5;
distance_BN 5.656854;
};
conductor_A object overhead_line_conductor {
resistance 0;
geometric_mean_radius 0;
};
conductor_B object overhead_line_conductor {
resistance 0;
geometric_mean_radius 0;
};
name PROH16415-LINECONFIG;
conductor_N object overhead_line_conductor {
resistance 0;
geometric_mean_radius 0;
};
conductor_C object overhead_line_conductor {
resistance 0;
geometric_mean_radius 0;
};
};
phases ACBN;
from nodePROH2135PROH16414;
name PROH16415;
to nodePRUG640PROH16415;
length 3554.74;
};

object underground_line {
configuration object line_configuration {
spacing object line_spacing {
distance_AN 0.000000;
name PRUG640-LINESPACING;
distance_CN 0.000000;
distance_BN 0.000000;
distance_BC 0.500000;
distance_AB 0.500000;
distance_AC 1.000000;
};
conductor_A object underground_line_conductor {
conductor_gmr 0.008830;
conductor_resistance 1.540000;
shield_resistance 0.000000;
neutral_gmr 0.002080;
neutral_strands 6.000000;
conductor_diameter 0.292000;
name PRUG640-PHASEA;
outer_diameter 0.980000;
neutral_resistance 14.872000;
neutral_diameter 0.064000;
shield_gmr 0.000000;
};
conductor_B object underground_line_conductor {
conductor_gmr 0.008830;
conductor_resistance 1.540000;
shield_resistance 0.000000;
neutral_gmr 0.002080;
neutral_strands 6.000000;
conductor_diameter 0.292000;
name PRUG640-PHASEB;
outer_diameter 0.980000;
neutral_resistance 14.872000;
neutral_diameter 0.064000;
shield_gmr 0.000000;
};
name PRUG640-LINECONFIG;
conductor_N object underground_line_conductor {
conductor_gmr 0.008830;
conductor_resistance 1.540000;
shield_resistance 0.000000;
neutral_gmr 0.002080;
neutral_strands 6.000000;
conductor_diameter 0.292000;
name PRUG640-PHASEN;
outer_diameter 0.980000;
neutral_resistance 14.872000;
neutral_diameter 0.064000;
shield_gmr 0.000000;
};
conductor_C object underground_line_conductor {
conductor_gmr 0.008830;
conductor_resistance 1.540000;
shield_resistance 0.000000;
neutral_gmr 0.002080;
neutral_strands 6.000000;
conductor_diameter 0.292000;
name PRUG640-PHASEC;
outer_diameter 0.980000;
neutral_resistance 14.872000;
neutral_diameter 0.064000;
shield_gmr 0.000000;
};
};
phases AN;
from nodePRUG640PROH16415;
name PRUG640;
to node308-14-130PRUG640;
length 222.608;
};

object load {
phases AN;
load_class R;
name 308-14-130;
parent node308-14-130PRUG640;
constant_power_C 100;
constant_power_A 40248.9;
nominal_voltage 120;
constant_power_B 100;
};

object overhead_line {
configuration object line_configuration {
spacing object line_spacing {
distance_BC 7.0;
name PROH16416-LINESPACING;
distance_CN 5.0;
distance_AC 4.5;
distance_AN 4.272002;
distance_AB 2.5;
distance_BN 5.656854;
};
conductor_A object overhead_line_conductor {
resistance 0;
geometric_mean_radius 0;
};
conductor_B object overhead_line_conductor {
resistance 0;
geometric_mean_radius 0;
};
name PROH16416-LINECONFIG;
conductor_N object overhead_line_conductor {
resistance 0;
geometric_mean_radius 0;
};
conductor_C object overhead_line_conductor {
resistance 0;
geometric_mean_radius 0;
};
};
phases ACBN;
from nodePRUG640PROH16415;
name PROH16416;
to nodeSWIT_47-BPROH16416;
length 498.235;
};

object switch {
status CLOSED;
phases ACBN;
from nodeSWIT_47-BPROH16416;
name SWIT_47-B;
to nodeSWIT_47-ASWIT_47-B;
};

object switch {
status CLOSED;
phases ACBN;
from nodeSWIT_47-ASWIT_47-B;
name SWIT_47-A;
to nodePROH7760SWIT_47-A;
};

object overhead_line {
configuration object line_configuration {
spacing object line_spacing {
distance_BC 7.0;
name PROH7760-LINESPACING;
distance_CN 5.0;
distance_AC 4.5;
distance_AN 4.272002;
distance_AB 2.5;
distance_BN 5.656854;
};
conductor_A object overhead_line_conductor {
resistance 0;
geometric_mean_radius 0;
};
conductor_B object overhead_line_conductor {
resistance 0;
geometric_mean_radius 0;
};
name PROH7760-LINECONFIG;
conductor_N object overhead_line_conductor {
resistance 0;
geometric_mean_radius 0;
};
conductor_C object overhead_line_conductor {
resistance 0;
geometric_mean_radius 0;
};
};
phases ACBN;
from nodePROH7760SWIT_47-A;
name PROH7760;
to nodePROH7759PROH7760;
length 337.429;
};

object overhead_line {
configuration object line_configuration {
spacing object line_spacing {
distance_BC 7.0;
name PROH7759-LINESPACING;
distance_CN 5.0;
distance_AC 4.5;
distance_AN 4.272002;
distance_AB 2.5;
distance_BN 5.656854;
};
conductor_A object overhead_line_conductor {
resistance 0;
geometric_mean_radius 0;
};
conductor_B object overhead_line_conductor {
resistance 0;
geometric_mean_radius 0;
};
name PROH7759-LINECONFIG;
conductor_N object overhead_line_conductor {
resistance 0;
geometric_mean_radius 0;
};
conductor_C object overhead_line_conductor {
resistance 0;
geometric_mean_radius 0;
};
};
phases ACBN;
from nodePROH7759PROH7760;
name PROH7759;
to nodeSWIT_46-BPROH7759;
length 928.539;
};

object overhead_line {
configuration object line_configuration {
spacing object line_spacing {
distance_BC 7.0;
name PROH10759-LINESPACING;
distance_CN 5.0;
distance_AC 4.5;
distance_AN 4.272002;
distance_AB 2.5;
distance_BN 5.656854;
};
conductor_A object overhead_line_conductor {
resistance 0;
geometric_mean_radius 0;
};
conductor_B object overhead_line_conductor {
resistance 0;
geometric_mean_radius 0;
};
name PROH10759-LINECONFIG;
conductor_N object overhead_line_conductor {
resistance 0;
geometric_mean_radius 0;
};
conductor_C object overhead_line_conductor {
resistance 0;
geometric_mean_radius 0;
};
};
phases ACBN;
from nodePROH7759PROH7760;
name PROH10759;
to nodePRUG2085PROH10759;
length 3888.15;
};

object underground_line {
configuration object line_configuration {
spacing object line_spacing {
distance_AN 0.000000;
name PRUG2085-LINESPACING;
distance_CN 0.000000;
distance_BN 0.000000;
distance_BC 0.500000;
distance_AB 0.500000;
distance_AC 1.000000;
};
conductor_A object underground_line_conductor {
conductor_gmr 0.008830;
conductor_resistance 1.540000;
shield_resistance 0.000000;
neutral_gmr 0.002080;
neutral_strands 6.000000;
conductor_diameter 0.292000;
name PRUG2085-PHASEA;
outer_diameter 0.980000;
neutral_resistance 14.872000;
neutral_diameter 0.064000;
shield_gmr 0.000000;
};
conductor_B object underground_line_conductor {
conductor_gmr 0.008830;
conductor_resistance 1.540000;
shield_resistance 0.000000;
neutral_gmr 0.002080;
neutral_strands 6.000000;
conductor_diameter 0.292000;
name PRUG2085-PHASEB;
outer_diameter 0.980000;
neutral_resistance 14.872000;
neutral_diameter 0.064000;
shield_gmr 0.000000;
};
name PRUG2085-LINECONFIG;
conductor_N object underground_line_conductor {
conductor_gmr 0.008830;
conductor_resistance 1.540000;
shield_resistance 0.000000;
neutral_gmr 0.002080;
neutral_strands 6.000000;
conductor_diameter 0.292000;
name PRUG2085-PHASEN;
outer_diameter 0.980000;
neutral_resistance 14.872000;
neutral_diameter 0.064000;
shield_gmr 0.000000;
};
conductor_C object underground_line_conductor {
conductor_gmr 0.008830;
conductor_resistance 1.540000;
shield_resistance 0.000000;
neutral_gmr 0.002080;
neutral_strands 6.000000;
conductor_diameter 0.292000;
name PRUG2085-PHASEC;
outer_diameter 0.980000;
neutral_resistance 14.872000;
neutral_diameter 0.064000;
shield_gmr 0.000000;
};
};
phases CN;
from nodePRUG2085PROH10759;
name PRUG2085;
to node308-15-120PRUG2085;
length 882.284;
};

object load {
phases CN;
load_class R;
name 308-15-120;
parent node308-15-120PRUG2085;
constant_power_C 6557.59;
constant_power_A 100;
nominal_voltage 120;
constant_power_B 100;
};

object overhead_line {
configuration object line_configuration {
spacing object line_spacing {
distance_BC 7.0;
name PROH10760-LINESPACING;
distance_CN 5.0;
distance_AC 4.5;
distance_AN 4.272002;
distance_AB 2.5;
distance_BN 5.656854;
};
conductor_A object overhead_line_conductor {
resistance 0;
geometric_mean_radius 0;
};
conductor_B object overhead_line_conductor {
resistance 0;
geometric_mean_radius 0;
};
name PROH10760-LINECONFIG;
conductor_N object overhead_line_conductor {
resistance 0;
geometric_mean_radius 0;
};
conductor_C object overhead_line_conductor {
resistance 0;
geometric_mean_radius 0;
};
};
phases ACBN;
from nodePRUG2085PROH10759;
name PROH10760;
to nodePROH11876PROH10760;
length 1101.27;
};
