clock {
timezone PST+8PDT;
stoptime '2000-01-02 00:00:00';
starttime '2000-01-01 00:00:00';
};

#set minimum_timestep=60;
#set profiler=1;
#set relax_naming_rules=1;
module generators;
module tape;
module climate;
module residential {
implicit_enduses NONE;
};

module powerflow {
solver_method FBS;
NR_iteration_limit 50;
};

object climate {
name Climate;
interpolate QUADRATIC;
tmyfile climate.tmy2;
};

object node {
phases ABCN;
name BROMLEY;
bustype SWING;
nominal_voltage 2400;
};

object overhead_line {
configuration object line_configuration {
spacing object line_spacing {
distance_BC 7.0;
name 8370-LINESPACING;
distance_CN 5.0;
distance_AC 4.5;
distance_AN 4.272002;
distance_AB 2.5;
distance_BN 5.656854;
};
conductor_A object overhead_line_conductor {
resistance 0.303;
geometric_mean_radius 0.0221;
};
conductor_B object overhead_line_conductor {
resistance 0.303;
geometric_mean_radius 0.0221;
};
name 8370-LINECONFIG;
conductor_N object overhead_line_conductor {
resistance 0.303;
geometric_mean_radius 0.0221;
};
conductor_C object overhead_line_conductor {
resistance 0.303;
geometric_mean_radius 0.0221;
};
};
phases ABCN;
from BROMLEY;
name 8370;
to node83698370;
length 25.0635;
};

object overhead_line {
configuration object line_configuration {
spacing object line_spacing {
distance_BC 7.0;
name 8369-LINESPACING;
distance_CN 5.0;
distance_AC 4.5;
distance_AN 4.272002;
distance_AB 2.5;
distance_BN 5.656854;
};
conductor_A object overhead_line_conductor {
resistance 0.303;
geometric_mean_radius 0.0221;
};
conductor_B object overhead_line_conductor {
resistance 0.303;
geometric_mean_radius 0.0221;
};
name 8369-LINECONFIG;
conductor_N object overhead_line_conductor {
resistance 0.303;
geometric_mean_radius 0.0221;
};
conductor_C object overhead_line_conductor {
resistance 0.303;
geometric_mean_radius 0.0221;
};
};
phases ABCN;
from node83698370;
name 8369;
to node682668369;
length 25.9559;
};

object overhead_line {
configuration object line_configuration {
spacing object line_spacing {
distance_BC 7.0;
name 68266-LINESPACING;
distance_CN 5.0;
distance_AC 4.5;
distance_AN 4.272002;
distance_AB 2.5;
distance_BN 5.656854;
};
conductor_A object overhead_line_conductor {
resistance 0.303;
geometric_mean_radius 0.0221;
};
conductor_B object overhead_line_conductor {
resistance 0.303;
geometric_mean_radius 0.0221;
};
name 68266-LINECONFIG;
conductor_N object overhead_line_conductor {
resistance 0.303;
geometric_mean_radius 0.0221;
};
conductor_C object overhead_line_conductor {
resistance 0.303;
geometric_mean_radius 0.0221;
};
};
phases ABCN;
from node682668369;
name 68266;
to node6826768266;
length 19.3343;
};

object overhead_line {
configuration object line_configuration {
spacing object line_spacing {
distance_BC 7.0;
name 68264-LINESPACING;
distance_CN 5.0;
distance_AC 4.5;
distance_AN 4.272002;
distance_AB 2.5;
distance_BN 5.656854;
};
conductor_A object overhead_line_conductor {
resistance 0.303;
geometric_mean_radius 0.0221;
};
conductor_B object overhead_line_conductor {
resistance 0.303;
geometric_mean_radius 0.0221;
};
name 68264-LINECONFIG;
conductor_N object overhead_line_conductor {
resistance 0.303;
geometric_mean_radius 0.0221;
};
conductor_C object overhead_line_conductor {
resistance 0.303;
geometric_mean_radius 0.0221;
};
};
phases ABCN;
from node682668369;
name 68264;
to node6826568264;
length 22.1567;
};

object overhead_line {
configuration object line_configuration {
spacing object line_spacing {
distance_BC 7.0;
name 68262-LINESPACING;
distance_CN 5.0;
distance_AC 4.5;
distance_AN 4.272002;
distance_AB 2.5;
distance_BN 5.656854;
};
conductor_A object overhead_line_conductor {
resistance 0.303;
geometric_mean_radius 0.0221;
};
conductor_B object overhead_line_conductor {
resistance 0.303;
geometric_mean_radius 0.0221;
};
name 68262-LINECONFIG;
conductor_N object overhead_line_conductor {
resistance 0.303;
geometric_mean_radius 0.0221;
};
conductor_C object overhead_line_conductor {
resistance 0.303;
geometric_mean_radius 0.0221;
};
};
phases ABCN;
from node682668369;
name 68262;
to node6826368262;
length 21.6901;
};

object overhead_line {
configuration object line_configuration {
spacing object line_spacing {
distance_BC 7.0;
name 68263-LINESPACING;
distance_CN 5.0;
distance_AC 4.5;
distance_AN 4.272002;
distance_AB 2.5;
distance_BN 5.656854;
};
conductor_A object overhead_line_conductor {
resistance 0.303;
geometric_mean_radius 0.0221;
};
conductor_B object overhead_line_conductor {
resistance 0.303;
geometric_mean_radius 0.0221;
};
name 68263-LINECONFIG;
conductor_N object overhead_line_conductor {
resistance 0.303;
geometric_mean_radius 0.0221;
};
conductor_C object overhead_line_conductor {
resistance 0.303;
geometric_mean_radius 0.0221;
};
};
phases ABCN;
from node6826368262;
name 68263;
to nodeR139868263;
length 25.5819;
};

object fuse {
phases ABCN;
from nodeR139868263;
name R1398;
current_limit 9999.0 A;
to node8586R1398;
};

object overhead_line {
configuration object line_configuration {
spacing object line_spacing {
distance_BC 7.0;
name 8586-LINESPACING;
distance_CN 5.0;
distance_AC 4.5;
distance_AN 4.272002;
distance_AB 2.5;
distance_BN 5.656854;
};
conductor_A object overhead_line_conductor {
resistance 0.303;
geometric_mean_radius 0.0221;
};
conductor_B object overhead_line_conductor {
resistance 0.303;
geometric_mean_radius 0.0221;
};
name 8586-LINECONFIG;
conductor_N object overhead_line_conductor {
resistance 0.303;
geometric_mean_radius 0.0221;
};
conductor_C object overhead_line_conductor {
resistance 0.303;
geometric_mean_radius 0.0221;
};
};
phases ABCN;
from node8586R1398;
name 8586;
to node85808586;
length 34.2101;
};

object overhead_line {
configuration object line_configuration {
spacing object line_spacing {
distance_BC 7.0;
name 8580-LINESPACING;
distance_CN 5.0;
distance_AC 4.5;
distance_AN 4.272002;
distance_AB 2.5;
distance_BN 5.656854;
};
conductor_A object overhead_line_conductor {
resistance 0.203;
geometric_mean_radius 0.048;
};
conductor_B object overhead_line_conductor {
resistance 0.203;
geometric_mean_radius 0.048;
};
name 8580-LINECONFIG;
conductor_N object overhead_line_conductor {
resistance 0.203;
geometric_mean_radius 0.048;
};
conductor_C object overhead_line_conductor {
resistance 0.203;
geometric_mean_radius 0.048;
};
};
phases ABCN;
from node85808586;
name 8580;
to node82588580;
length 108.402;
};

object overhead_line {
configuration object line_configuration {
spacing object line_spacing {
distance_BC 7.0;
name 8258-LINESPACING;
distance_CN 5.0;
distance_AC 4.5;
distance_AN 4.272002;
distance_AB 2.5;
distance_BN 5.656854;
};
conductor_A object overhead_line_conductor {
resistance 0.203;
geometric_mean_radius 0.048;
};
conductor_B object overhead_line_conductor {
resistance 0.203;
geometric_mean_radius 0.048;
};
name 8258-LINECONFIG;
conductor_N object overhead_line_conductor {
resistance 0.203;
geometric_mean_radius 0.048;
};
conductor_C object overhead_line_conductor {
resistance 0.203;
geometric_mean_radius 0.048;
};
};
phases ABCN;
from node82588580;
name 8258;
to node85408258;
length 106.998;
};

object overhead_line {
configuration object line_configuration {
spacing object line_spacing {
distance_BC 7.0;
name 8540-LINESPACING;
distance_CN 5.0;
distance_AC 4.5;
distance_AN 4.272002;
distance_AB 2.5;
distance_BN 5.656854;
};
conductor_A object overhead_line_conductor {
resistance 0.203;
geometric_mean_radius 0.048;
};
conductor_B object overhead_line_conductor {
resistance 0.203;
geometric_mean_radius 0.048;
};
name 8540-LINECONFIG;
conductor_N object overhead_line_conductor {
resistance 0.203;
geometric_mean_radius 0.048;
};
conductor_C object overhead_line_conductor {
resistance 0.203;
geometric_mean_radius 0.048;
};
};
phases ABCN;
from node85408258;
name 8540;
to node84948540;
length 131.126;
};

object overhead_line {
configuration object line_configuration {
spacing object line_spacing {
distance_BC 7.0;
name 8494-LINESPACING;
distance_CN 5.0;
distance_AC 4.5;
distance_AN 4.272002;
distance_AB 2.5;
distance_BN 5.656854;
};
conductor_A object overhead_line_conductor {
resistance 0.203;
geometric_mean_radius 0.048;
};
conductor_B object overhead_line_conductor {
resistance 0.203;
geometric_mean_radius 0.048;
};
name 8494-LINECONFIG;
conductor_N object overhead_line_conductor {
resistance 0.203;
geometric_mean_radius 0.048;
};
conductor_C object overhead_line_conductor {
resistance 0.203;
geometric_mean_radius 0.048;
};
};
phases ABCN;
from node84948540;
name 8494;
to node81958494;
length 131.563;
};

object overhead_line {
configuration object line_configuration {
spacing object line_spacing {
distance_BC 7.0;
name 8195-LINESPACING;
distance_CN 5.0;
distance_AC 4.5;
distance_AN 4.272002;
distance_AB 2.5;
distance_BN 5.656854;
};
conductor_A object overhead_line_conductor {
resistance 0.203;
geometric_mean_radius 0.048;
};
conductor_B object overhead_line_conductor {
resistance 0.203;
geometric_mean_radius 0.048;
};
name 8195-LINECONFIG;
conductor_N object overhead_line_conductor {
resistance 0.203;
geometric_mean_radius 0.048;
};
conductor_C object overhead_line_conductor {
resistance 0.203;
geometric_mean_radius 0.048;
};
};
phases ABCN;
from node81958494;
name 8195;
to node81948195;
length 106.214;
};

object overhead_line {
configuration object line_configuration {
spacing object line_spacing {
distance_BC 7.0;
name 8194-LINESPACING;
distance_CN 5.0;
distance_AC 4.5;
distance_AN 4.272002;
distance_AB 2.5;
distance_BN 5.656854;
};
conductor_A object overhead_line_conductor {
resistance 0.203;
geometric_mean_radius 0.048;
};
conductor_B object overhead_line_conductor {
resistance 0.203;
geometric_mean_radius 0.048;
};
name 8194-LINECONFIG;
conductor_N object overhead_line_conductor {
resistance 0.203;
geometric_mean_radius 0.048;
};
conductor_C object overhead_line_conductor {
resistance 0.203;
geometric_mean_radius 0.048;
};
};
phases ABCN;
from node81948195;
name 8194;
to node81858194;
length 180.078;
};

object overhead_line {
configuration object line_configuration {
spacing object line_spacing {
distance_BC 7.0;
name 8185-LINESPACING;
distance_CN 5.0;
distance_AC 4.5;
distance_AN 4.272002;
distance_AB 2.5;
distance_BN 5.656854;
};
conductor_A object overhead_line_conductor {
resistance 0.303;
geometric_mean_radius 0.0221;
};
conductor_B object overhead_line_conductor {
resistance 0.303;
geometric_mean_radius 0.0221;
};
name 8185-LINECONFIG;
conductor_N object overhead_line_conductor {
resistance 0.303;
geometric_mean_radius 0.0221;
};
conductor_C object overhead_line_conductor {
resistance 0.303;
geometric_mean_radius 0.0221;
};
};
phases ABCN;
from node81858194;
name 8185;
to node83378185;
length 255.533;
};

object overhead_line {
configuration object line_configuration {
spacing object line_spacing {
distance_BC 7.0;
name 8337-LINESPACING;
distance_CN 5.0;
distance_AC 4.5;
distance_AN 4.272002;
distance_AB 2.5;
distance_BN 5.656854;
};
conductor_A object overhead_line_conductor {
resistance 0.303;
geometric_mean_radius 0.0221;
};
conductor_B object overhead_line_conductor {
resistance 0.303;
geometric_mean_radius 0.0221;
};
name 8337-LINECONFIG;
conductor_N object overhead_line_conductor {
resistance 0.303;
geometric_mean_radius 0.0221;
};
conductor_C object overhead_line_conductor {
resistance 0.303;
geometric_mean_radius 0.0221;
};
};
phases ABCN;
from node83378185;
name 8337;
to node82308337;
length 284.126;
};

object overhead_line {
configuration object line_configuration {
spacing object line_spacing {
distance_BC 7.0;
name 8230-LINESPACING;
distance_CN 5.0;
distance_AC 4.5;
distance_AN 4.272002;
distance_AB 2.5;
distance_BN 5.656854;
};
conductor_A object overhead_line_conductor {
resistance 0.303;
geometric_mean_radius 0.0221;
};
conductor_B object overhead_line_conductor {
resistance 0.303;
geometric_mean_radius 0.0221;
};
name 8230-LINECONFIG;
conductor_N object overhead_line_conductor {
resistance 0.303;
geometric_mean_radius 0.0221;
};
conductor_C object overhead_line_conductor {
resistance 0.303;
geometric_mean_radius 0.0221;
};
};
phases ABCN;
from node82308337;
name 8230;
to node73548230;
length 180.361;
};

object overhead_line {
configuration object line_configuration {
spacing object line_spacing {
distance_BC 7.0;
name 7354-LINESPACING;
distance_CN 5.0;
distance_AC 4.5;
distance_AN 4.272002;
distance_AB 2.5;
distance_BN 5.656854;
};
conductor_A object overhead_line_conductor {
resistance 0.303;
geometric_mean_radius 0.0221;
};
conductor_B object overhead_line_conductor {
resistance 0.303;
geometric_mean_radius 0.0221;
};
name 7354-LINECONFIG;
conductor_N object overhead_line_conductor {
resistance 0.303;
geometric_mean_radius 0.0221;
};
conductor_C object overhead_line_conductor {
resistance 0.303;
geometric_mean_radius 0.0221;
};
};
phases ABCN;
from node73548230;
name 7354;
to node81087354;
length 245.509;
};

object overhead_line {
configuration object line_configuration {
spacing object line_spacing {
distance_BC 7.0;
name 8108-LINESPACING;
distance_CN 5.0;
distance_AC 4.5;
distance_AN 4.272002;
distance_AB 2.5;
distance_BN 5.656854;
};
conductor_A object overhead_line_conductor {
resistance 0.303;
geometric_mean_radius 0.0221;
};
conductor_B object overhead_line_conductor {
resistance 0.303;
geometric_mean_radius 0.0221;
};
name 8108-LINECONFIG;
conductor_N object overhead_line_conductor {
resistance 0.303;
geometric_mean_radius 0.0221;
};
conductor_C object overhead_line_conductor {
resistance 0.303;
geometric_mean_radius 0.0221;
};
};
phases ABCN;
from node81087354;
name 8108;
to node80688108;
length 320.366;
};

object overhead_line {
configuration object line_configuration {
spacing object line_spacing {
distance_BC 7.0;
name 8068-LINESPACING;
distance_CN 5.0;
distance_AC 4.5;
distance_AN 4.272002;
distance_AB 2.5;
distance_BN 5.656854;
};
conductor_A object overhead_line_conductor {
resistance 0.303;
geometric_mean_radius 0.0221;
};
conductor_B object overhead_line_conductor {
resistance 0.303;
geometric_mean_radius 0.0221;
};
name 8068-LINECONFIG;
conductor_N object overhead_line_conductor {
resistance 0.303;
geometric_mean_radius 0.0221;
};
conductor_C object overhead_line_conductor {
resistance 0.303;
geometric_mean_radius 0.0221;
};
};
phases ABCN;
from node80688108;
name 8068;
to node79418068;
length 300.212;
};

object overhead_line {
configuration object line_configuration {
spacing object line_spacing {
distance_BC 7.0;
name 7941-LINESPACING;
distance_CN 5.0;
distance_AC 4.5;
distance_AN 4.272002;
distance_AB 2.5;
distance_BN 5.656854;
};
conductor_A object overhead_line_conductor {
resistance 0.303;
geometric_mean_radius 0.0221;
};
conductor_B object overhead_line_conductor {
resistance 0.303;
geometric_mean_radius 0.0221;
};
name 7941-LINECONFIG;
conductor_N object overhead_line_conductor {
resistance 0.303;
geometric_mean_radius 0.0221;
};
conductor_C object overhead_line_conductor {
resistance 0.303;
geometric_mean_radius 0.0221;
};
};
phases ABCN;
from node79418068;
name 7941;
to node74767941;
length 285.923;
};

object overhead_line {
configuration object line_configuration {
spacing object line_spacing {
distance_BC 7.0;
name 7476-LINESPACING;
distance_CN 5.0;
distance_AC 4.5;
distance_AN 4.272002;
distance_AB 2.5;
distance_BN 5.656854;
};
conductor_A object overhead_line_conductor {
resistance 0.303;
geometric_mean_radius 0.0221;
};
conductor_B object overhead_line_conductor {
resistance 0.303;
geometric_mean_radius 0.0221;
};
name 7476-LINECONFIG;
conductor_N object overhead_line_conductor {
resistance 0.303;
geometric_mean_radius 0.0221;
};
conductor_C object overhead_line_conductor {
resistance 0.303;
geometric_mean_radius 0.0221;
};
};
phases ABCN;
from node74767941;
name 7476;
to node77527476;
length 399.581;
};

object overhead_line {
configuration object line_configuration {
spacing object line_spacing {
distance_BC 7.0;
name 7752-LINESPACING;
distance_CN 5.0;
distance_AC 4.5;
distance_AN 4.272002;
distance_AB 2.5;
distance_BN 5.656854;
};
conductor_A object overhead_line_conductor {
resistance 0.303;
geometric_mean_radius 0.0221;
};
conductor_B object overhead_line_conductor {
resistance 0.303;
geometric_mean_radius 0.0221;
};
name 7752-LINECONFIG;
conductor_N object overhead_line_conductor {
resistance 0.303;
geometric_mean_radius 0.0221;
};
conductor_C object overhead_line_conductor {
resistance 0.303;
geometric_mean_radius 0.0221;
};
};
phases ABCN;
from node77527476;
name 7752;
to node77337752;
length 184.545;
};

object overhead_line {
configuration object line_configuration {
spacing object line_spacing {
distance_BC 7.0;
name 7733-LINESPACING;
distance_CN 5.0;
distance_AC 4.5;
distance_AN 4.272002;
distance_AB 2.5;
distance_BN 5.656854;
};
conductor_A object overhead_line_conductor {
resistance 0.303;
geometric_mean_radius 0.0221;
};
conductor_B object overhead_line_conductor {
resistance 0.303;
geometric_mean_radius 0.0221;
};
name 7733-LINECONFIG;
conductor_N object overhead_line_conductor {
resistance 0.303;
geometric_mean_radius 0.0221;
};
conductor_C object overhead_line_conductor {
resistance 0.303;
geometric_mean_radius 0.0221;
};
};
phases ABCN;
from node77337752;
name 7733;
to node73097733;
length 512.78;
};

object overhead_line {
configuration object line_configuration {
spacing object line_spacing {
distance_BC 7.0;
name 7309-LINESPACING;
distance_CN 5.0;
distance_AC 4.5;
distance_AN 4.272002;
distance_AB 2.5;
distance_BN 5.656854;
};
conductor_A object overhead_line_conductor {
resistance 0.303;
geometric_mean_radius 0.0221;
};
conductor_B object overhead_line_conductor {
resistance 0.303;
geometric_mean_radius 0.0221;
};
name 7309-LINECONFIG;
conductor_N object overhead_line_conductor {
resistance 0.303;
geometric_mean_radius 0.0221;
};
conductor_C object overhead_line_conductor {
resistance 0.303;
geometric_mean_radius 0.0221;
};
};
phases ABCN;
from node73097733;
name 7309;
to node72137309;
length 533.965;
};

object overhead_line {
configuration object line_configuration {
spacing object line_spacing {
distance_BC 7.0;
name 7213-LINESPACING;
distance_CN 5.0;
distance_AC 4.5;
distance_AN 4.272002;
distance_AB 2.5;
distance_BN 5.656854;
};
conductor_A object overhead_line_conductor {
resistance 0.303;
geometric_mean_radius 0.0221;
};
conductor_B object overhead_line_conductor {
resistance 0.303;
geometric_mean_radius 0.0221;
};
name 7213-LINECONFIG;
conductor_N object overhead_line_conductor {
resistance 0.303;
geometric_mean_radius 0.0221;
};
conductor_C object overhead_line_conductor {
resistance 0.303;
geometric_mean_radius 0.0221;
};
};
phases ABCN;
from node72137309;
name 7213;
to node75267213;
length 303.385;
};

object overhead_line {
configuration object line_configuration {
spacing object line_spacing {
distance_BC 7.0;
name 7526-LINESPACING;
distance_CN 5.0;
distance_AC 4.5;
distance_AN 4.272002;
distance_AB 2.5;
distance_BN 5.656854;
};
conductor_A object overhead_line_conductor {
resistance 0.303;
geometric_mean_radius 0.0221;
};
conductor_B object overhead_line_conductor {
resistance 0.303;
geometric_mean_radius 0.0221;
};
name 7526-LINECONFIG;
conductor_N object overhead_line_conductor {
resistance 0.303;
geometric_mean_radius 0.0221;
};
conductor_C object overhead_line_conductor {
resistance 0.303;
geometric_mean_radius 0.0221;
};
};
phases ABCN;
from node75267213;
name 7526;
to node65167526;
length 240.809;
};

object overhead_line {
configuration object line_configuration {
spacing object line_spacing {
distance_BC 7.0;
name 6516-LINESPACING;
distance_CN 5.0;
distance_AC 4.5;
distance_AN 4.272002;
distance_AB 2.5;
distance_BN 5.656854;
};
conductor_A object overhead_line_conductor {
resistance 0.303;
geometric_mean_radius 0.0221;
};
conductor_B object overhead_line_conductor {
resistance 0.303;
geometric_mean_radius 0.0221;
};
name 6516-LINECONFIG;
conductor_N object overhead_line_conductor {
resistance 0.303;
geometric_mean_radius 0.0221;
};
conductor_C object overhead_line_conductor {
resistance 0.303;
geometric_mean_radius 0.0221;
};
};
phases ABCN;
from node65167526;
name 6516;
to nodeT121752020386516;
length 257.081;
};

object transformer {
configuration object transformer_configuration {
powerC_rating 50 kVA;
name T12175202038-CONFIG;
shunt_impedance 10000+10000j;
secondary_voltage 120.0;
connect_type SINGLE_PHASE_CENTER_TAPPED;
impedance 0.00033+0.0022j;
primary_voltage 7200.0;
powerB_rating 50 kVA;
powerA_rating 50 kVA;
};
phases CN;
from nodeT121752020386516;
name T12175202038;
to node12175202046T12175202038;
};

object load {
phases CN;
load_class R;
name 12175202046;
parent node12175202046T12175202038;
constant_power_C 4.24947;
constant_power_A 0.0;
nominal_voltage 120;
constant_power_B 0.0;
};

object overhead_line {
configuration object line_configuration {
spacing object line_spacing {
distance_BC 7.0;
name 7187-LINESPACING;
distance_CN 5.0;
distance_AC 4.5;
distance_AN 4.272002;
distance_AB 2.5;
distance_BN 5.656854;
};
conductor_A object overhead_line_conductor {
resistance 0.303;
geometric_mean_radius 0.0221;
};
conductor_B object overhead_line_conductor {
resistance 0.303;
geometric_mean_radius 0.0221;
};
name 7187-LINECONFIG;
conductor_N object overhead_line_conductor {
resistance 0.303;
geometric_mean_radius 0.0221;
};
conductor_C object overhead_line_conductor {
resistance 0.303;
geometric_mean_radius 0.0221;
};
};
phases ABCN;
from nodeT121752020386516;
name 7187;
to node71477187;
length 183.125;
};

object overhead_line {
configuration object line_configuration {
spacing object line_spacing {
distance_BC 7.0;
name 7147-LINESPACING;
distance_CN 5.0;
distance_AC 4.5;
distance_AN 4.272002;
distance_AB 2.5;
distance_BN 5.656854;
};
conductor_A object overhead_line_conductor {
resistance 0.303;
geometric_mean_radius 0.0221;
};
conductor_B object overhead_line_conductor {
resistance 0.303;
geometric_mean_radius 0.0221;
};
name 7147-LINECONFIG;
conductor_N object overhead_line_conductor {
resistance 0.303;
geometric_mean_radius 0.0221;
};
conductor_C object overhead_line_conductor {
resistance 0.303;
geometric_mean_radius 0.0221;
};
};
phases ABCN;
from node71477187;
name 7147;
to nodeT121752000677147;
length 168.042;
};

object transformer {
configuration object transformer_configuration {
powerC_rating 50 kVA;
name T12175200067-CONFIG;
shunt_impedance 10000+10000j;
secondary_voltage 120.0;
connect_type SINGLE_PHASE_CENTER_TAPPED;
impedance 0.00033+0.0022j;
primary_voltage 7200.0;
powerB_rating 50 kVA;
powerA_rating 50 kVA;
};
phases CN;
from nodeT121752000677147;
name T12175200067;
to node12175200073T12175200067;
};

object load {
phases CN;
load_class R;
name 12175200073;
parent node12175200073T12175200067;
constant_power_C 1848.52;
constant_power_A 0.0;
nominal_voltage 120;
constant_power_B 0.0;
};

object overhead_line {
configuration object line_configuration {
spacing object line_spacing {
distance_BC 7.0;
name 6977-LINESPACING;
distance_CN 5.0;
distance_AC 4.5;
distance_AN 4.272002;
distance_AB 2.5;
distance_BN 5.656854;
};
conductor_A object overhead_line_conductor {
resistance 0.303;
geometric_mean_radius 0.0221;
};
conductor_B object overhead_line_conductor {
resistance 0.303;
geometric_mean_radius 0.0221;
};
name 6977-LINECONFIG;
conductor_N object overhead_line_conductor {
resistance 0.303;
geometric_mean_radius 0.0221;
};
conductor_C object overhead_line_conductor {
resistance 0.303;
geometric_mean_radius 0.0221;
};
};
phases ABCN;
from nodeT121752000677147;
name 6977;
to node68466977;
length 390.474;
};

object overhead_line {
configuration object line_configuration {
spacing object line_spacing {
distance_BC 7.0;
name 6846-LINESPACING;
distance_CN 5.0;
distance_AC 4.5;
distance_AN 4.272002;
distance_AB 2.5;
distance_BN 5.656854;
};
conductor_A object overhead_line_conductor {
resistance 0.303;
geometric_mean_radius 0.0221;
};
conductor_B object overhead_line_conductor {
resistance 0.303;
geometric_mean_radius 0.0221;
};
name 6846-LINECONFIG;
conductor_N object overhead_line_conductor {
resistance 0.303;
geometric_mean_radius 0.0221;
};
conductor_C object overhead_line_conductor {
resistance 0.303;
geometric_mean_radius 0.0221;
};
};
phases ABCN;
from node68466977;
name 6846;
to node67136846;
length 434.375;
};

object overhead_line {
configuration object line_configuration {
spacing object line_spacing {
distance_BC 7.0;
name 6713-LINESPACING;
distance_CN 5.0;
distance_AC 4.5;
distance_AN 4.272002;
distance_AB 2.5;
distance_BN 5.656854;
};
conductor_A object overhead_line_conductor {
resistance 0.303;
geometric_mean_radius 0.0221;
};
conductor_B object overhead_line_conductor {
resistance 0.303;
geometric_mean_radius 0.0221;
};
name 6713-LINECONFIG;
conductor_N object overhead_line_conductor {
resistance 0.303;
geometric_mean_radius 0.0221;
};
conductor_C object overhead_line_conductor {
resistance 0.303;
geometric_mean_radius 0.0221;
};
};
phases ABCN;
from node67136846;
name 6713;
to node64756713;
length 452.545;
};

object overhead_line {
configuration object line_configuration {
spacing object line_spacing {
distance_BC 7.0;
name 6475-LINESPACING;
distance_CN 5.0;
distance_AC 4.5;
distance_AN 4.272002;
distance_AB 2.5;
distance_BN 5.656854;
};
conductor_A object overhead_line_conductor {
resistance 0.303;
geometric_mean_radius 0.0221;
};
conductor_B object overhead_line_conductor {
resistance 0.303;
geometric_mean_radius 0.0221;
};
name 6475-LINECONFIG;
conductor_N object overhead_line_conductor {
resistance 0.303;
geometric_mean_radius 0.0221;
};
conductor_C object overhead_line_conductor {
resistance 0.303;
geometric_mean_radius 0.0221;
};
};
phases ABCN;
from node64756713;
name 6475;
to node61476475;
length 444.672;
};

object overhead_line {
configuration object line_configuration {
spacing object line_spacing {
distance_BC 7.0;
name 6147-LINESPACING;
distance_CN 5.0;
distance_AC 4.5;
distance_AN 4.272002;
distance_AB 2.5;
distance_BN 5.656854;
};
conductor_A object overhead_line_conductor {
resistance 0.303;
geometric_mean_radius 0.0221;
};
conductor_B object overhead_line_conductor {
resistance 0.303;
geometric_mean_radius 0.0221;
};
name 6147-LINECONFIG;
conductor_N object overhead_line_conductor {
resistance 0.303;
geometric_mean_radius 0.0221;
};
conductor_C object overhead_line_conductor {
resistance 0.303;
geometric_mean_radius 0.0221;
};
};
phases ABCN;
from node61476475;
name 6147;
to nodeT121751901726147;
length 319.893;
};

object transformer {
configuration object transformer_configuration {
powerC_rating 50 kVA;
name T12175190172-CONFIG;
shunt_impedance 10000+10000j;
secondary_voltage 120.0;
connect_type SINGLE_PHASE_CENTER_TAPPED;
impedance 0.00033+0.0022j;
primary_voltage 7200.0;
powerB_rating 50 kVA;
powerA_rating 50 kVA;
};
phases BN;
from nodeT121751901726147;
name T12175190172;
to node12175190010T12175190172;
};

object load {
phases BN;
load_class R;
name 12175190010;
parent node12175190010T12175190172;
constant_power_C 0.0;
constant_power_A 0.0;
nominal_voltage 120;
constant_power_B 1708.29;
};

object overhead_line {
configuration object line_configuration {
spacing object line_spacing {
distance_BC 7.0;
name 6348-LINESPACING;
distance_CN 5.0;
distance_AC 4.5;
distance_AN 4.272002;
distance_AB 2.5;
distance_BN 5.656854;
};
conductor_A object overhead_line_conductor {
resistance 0.303;
geometric_mean_radius 0.0221;
};
conductor_B object overhead_line_conductor {
resistance 0.303;
geometric_mean_radius 0.0221;
};
name 6348-LINECONFIG;
conductor_N object overhead_line_conductor {
resistance 0.303;
geometric_mean_radius 0.0221;
};
conductor_C object overhead_line_conductor {
resistance 0.303;
geometric_mean_radius 0.0221;
};
};
phases ABCN;
from nodeT121751901726147;
name 6348;
to nodeT121751882426348;
length 494.97;
};

object transformer {
configuration object transformer_configuration {
powerC_rating 50 kVA;
name T12175188242-CONFIG;
shunt_impedance 10000+10000j;
secondary_voltage 120.0;
connect_type SINGLE_PHASE_CENTER_TAPPED;
impedance 0.00033+0.0022j;
primary_voltage 7200.0;
powerB_rating 50 kVA;
powerA_rating 50 kVA;
};
phases BN;
from nodeT121751882426348;
name T12175188242;
to node12175188268T12175188242;
};

object load {
phases BN;
load_class R;
name 12175188268;
parent node12175188268T12175188242;
constant_power_C 0.0;
constant_power_A 0.0;
nominal_voltage 120;
constant_power_B 3034.12;
};

object overhead_line {
configuration object line_configuration {
spacing object line_spacing {
distance_BC 7.0;
name 6263-LINESPACING;
distance_CN 5.0;
distance_AC 4.5;
distance_AN 4.272002;
distance_AB 2.5;
distance_BN 5.656854;
};
conductor_A object overhead_line_conductor {
resistance 0.303;
geometric_mean_radius 0.0221;
};
conductor_B object overhead_line_conductor {
resistance 0.303;
geometric_mean_radius 0.0221;
};
name 6263-LINECONFIG;
conductor_N object overhead_line_conductor {
resistance 0.303;
geometric_mean_radius 0.0221;
};
conductor_C object overhead_line_conductor {
resistance 0.303;
geometric_mean_radius 0.0221;
};
};
phases ABCN;
from nodeT121751882426348;
name 6263;
to node62626263;
length 133.552;
};

object overhead_line {
configuration object line_configuration {
spacing object line_spacing {
distance_BC 7.0;
name 6262-LINESPACING;
distance_CN 5.0;
distance_AC 4.5;
distance_AN 4.272002;
distance_AB 2.5;
distance_BN 5.656854;
};
conductor_A object overhead_line_conductor {
resistance 0.303;
geometric_mean_radius 0.0221;
};
conductor_B object overhead_line_conductor {
resistance 0.303;
geometric_mean_radius 0.0221;
};
name 6262-LINECONFIG;
conductor_N object overhead_line_conductor {
resistance 0.303;
geometric_mean_radius 0.0221;
};
conductor_C object overhead_line_conductor {
resistance 0.303;
geometric_mean_radius 0.0221;
};
};
phases ABCN;
from node62626263;
name 6262;
to node60296262;
length 196.269;
};

object overhead_line {
configuration object line_configuration {
spacing object line_spacing {
distance_BC 7.0;
name 6029-LINESPACING;
distance_CN 5.0;
distance_AC 4.5;
distance_AN 4.272002;
distance_AB 2.5;
distance_BN 5.656854;
};