clock {
timezone PST+8PDT;
stoptime '2000-01-02 00:00:00';
starttime '2000-01-01 00:00:00';
};

#set minimum_timestep=60;
#set profiler=1;
#set relax_naming_rules=1;
module generators;
module tape;
module climate;
module residential {
implicit_enduses NONE;
};

module powerflow {
solver_method FBS;
NR_iteration_limit 50;
};

object climate {
name Climate;
interpolate QUADRATIC;
tmyfile climate.tmy2;
};

object node {
phases ABCN;
name BURLINGTON;
bustype SWING;
nominal_voltage 2400;
};

object overhead_line {
configuration object line_configuration {
spacing object line_spacing {
distance_BC 7.0;
name 21003-LINESPACING;
distance_CN 5.0;
distance_AC 4.5;
distance_AN 4.272002;
distance_AB 2.5;
distance_BN 5.656854;
};
conductor_A object overhead_line_conductor {
resistance 0.303;
geometric_mean_radius 0.0221;
};
conductor_B object overhead_line_conductor {
resistance 0.303;
geometric_mean_radius 0.0221;
};
name 21003-LINECONFIG;
conductor_N object overhead_line_conductor {
resistance 0.303;
geometric_mean_radius 0.0221;
};
conductor_C object overhead_line_conductor {
resistance 0.303;
geometric_mean_radius 0.0221;
};
};
phases ABCN;
from BURLINGTON;
name 21003;
to node2101121003;
length 20.6237;
};

object overhead_line {
configuration object line_configuration {
spacing object line_spacing {
distance_BC 7.0;
name 21011-LINESPACING;
distance_CN 5.0;
distance_AC 4.5;
distance_AN 4.272002;
distance_AB 2.5;
distance_BN 5.656854;
};
conductor_A object overhead_line_conductor {
resistance 0.303;
geometric_mean_radius 0.0221;
};
conductor_B object overhead_line_conductor {
resistance 0.303;
geometric_mean_radius 0.0221;
};
name 21011-LINECONFIG;
conductor_N object overhead_line_conductor {
resistance 0.303;
geometric_mean_radius 0.0221;
};
conductor_C object overhead_line_conductor {
resistance 0.303;
geometric_mean_radius 0.0221;
};
};
phases ABCN;
from node2101121003;
name 21011;
to node6830421011;
length 13.0755;
};

object overhead_line {
configuration object line_configuration {
spacing object line_spacing {
distance_BC 7.0;
name 68304-LINESPACING;
distance_CN 5.0;
distance_AC 4.5;
distance_AN 4.272002;
distance_AB 2.5;
distance_BN 5.656854;
};
conductor_A object overhead_line_conductor {
resistance 0.303;
geometric_mean_radius 0.0221;
};
conductor_B object overhead_line_conductor {
resistance 0.303;
geometric_mean_radius 0.0221;
};
name 68304-LINECONFIG;
conductor_N object overhead_line_conductor {
resistance 0.303;
geometric_mean_radius 0.0221;
};
conductor_C object overhead_line_conductor {
resistance 0.303;
geometric_mean_radius 0.0221;
};
};
phases ABCN;
from node6830421011;
name 68304;
to node6830568304;
length 14.8233;
};

object overhead_line {
configuration object line_configuration {
spacing object line_spacing {
distance_BC 7.0;
name 68302-LINESPACING;
distance_CN 5.0;
distance_AC 4.5;
distance_AN 4.272002;
distance_AB 2.5;
distance_BN 5.656854;
};
conductor_A object overhead_line_conductor {
resistance 0.303;
geometric_mean_radius 0.0221;
};
conductor_B object overhead_line_conductor {
resistance 0.303;
geometric_mean_radius 0.0221;
};
name 68302-LINECONFIG;
conductor_N object overhead_line_conductor {
resistance 0.303;
geometric_mean_radius 0.0221;
};
conductor_C object overhead_line_conductor {
resistance 0.303;
geometric_mean_radius 0.0221;
};
};
phases ABCN;
from node6830421011;
name 68302;
to node6830368302;
length 8.15102;
};

object overhead_line {
configuration object line_configuration {
spacing object line_spacing {
distance_BC 7.0;
name 68300-LINESPACING;
distance_CN 5.0;
distance_AC 4.5;
distance_AN 4.272002;
distance_AB 2.5;
distance_BN 5.656854;
};
conductor_A object overhead_line_conductor {
resistance 0.303;
geometric_mean_radius 0.0221;
};
conductor_B object overhead_line_conductor {
resistance 0.303;
geometric_mean_radius 0.0221;
};
name 68300-LINECONFIG;
conductor_N object overhead_line_conductor {
resistance 0.303;
geometric_mean_radius 0.0221;
};
conductor_C object overhead_line_conductor {
resistance 0.303;
geometric_mean_radius 0.0221;
};
};
phases ABCN;
from node6830421011;
name 68300;
to node6830168300;
length 8.42273;
};

object overhead_line {
configuration object line_configuration {
spacing object line_spacing {
distance_BC 7.0;
name 68298-LINESPACING;
distance_CN 5.0;
distance_AC 4.5;
distance_AN 4.272002;
distance_AB 2.5;
distance_BN 5.656854;
};
conductor_A object overhead_line_conductor {
resistance 0.303;
geometric_mean_radius 0.0221;
};
conductor_B object overhead_line_conductor {
resistance 0.303;
geometric_mean_radius 0.0221;
};
name 68298-LINECONFIG;
conductor_N object overhead_line_conductor {
resistance 0.303;
geometric_mean_radius 0.0221;
};
conductor_C object overhead_line_conductor {
resistance 0.303;
geometric_mean_radius 0.0221;
};
};
phases ABCN;
from node6830421011;
name 68298;
to node6829968298;
length 19.0913;
};

object overhead_line {
configuration object line_configuration {
spacing object line_spacing {
distance_BC 7.0;
name 68299-LINESPACING;
distance_CN 5.0;
distance_AC 4.5;
distance_AN 4.272002;
distance_AB 2.5;
distance_BN 5.656854;
};
conductor_A object overhead_line_conductor {
resistance 0.303;
geometric_mean_radius 0.0221;
};
conductor_B object overhead_line_conductor {
resistance 0.303;
geometric_mean_radius 0.0221;
};
name 68299-LINECONFIG;
conductor_N object overhead_line_conductor {
resistance 0.303;
geometric_mean_radius 0.0221;
};
conductor_C object overhead_line_conductor {
resistance 0.303;
geometric_mean_radius 0.0221;
};
};
phases ABCN;
from node6829968298;
name 68299;
to nodeR118268299;
length 24.3563;
};

object fuse {
phases ABCN;
from nodeR118268299;
name R1182;
current_limit 9999.0 A;
to node20944R1182;
};

object overhead_line {
configuration object line_configuration {
spacing object line_spacing {
distance_BC 7.0;
name 20944-LINESPACING;
distance_CN 5.0;
distance_AC 4.5;
distance_AN 4.272002;
distance_AB 2.5;
distance_BN 5.656854;
};
conductor_A object overhead_line_conductor {
resistance 0.303;
geometric_mean_radius 0.0221;
};
conductor_B object overhead_line_conductor {
resistance 0.303;
geometric_mean_radius 0.0221;
};
name 20944-LINECONFIG;
conductor_N object overhead_line_conductor {
resistance 0.303;
geometric_mean_radius 0.0221;
};
conductor_C object overhead_line_conductor {
resistance 0.303;
geometric_mean_radius 0.0221;
};
};
phases ABCN;
from node20944R1182;
name 20944;
to node2083720944;
length 82.2659;
};

object overhead_line {
configuration object line_configuration {
spacing object line_spacing {
distance_BC 7.0;
name 20837-LINESPACING;
distance_CN 5.0;
distance_AC 4.5;
distance_AN 4.272002;
distance_AB 2.5;
distance_BN 5.656854;
};
conductor_A object overhead_line_conductor {
resistance 0.303;
geometric_mean_radius 0.0221;
};
conductor_B object overhead_line_conductor {
resistance 0.303;
geometric_mean_radius 0.0221;
};
name 20837-LINECONFIG;
conductor_N object overhead_line_conductor {
resistance 0.303;
geometric_mean_radius 0.0221;
};
conductor_C object overhead_line_conductor {
resistance 0.303;
geometric_mean_radius 0.0221;
};
};
phases ABCN;
from node2083720944;
name 20837;
to node2088120837;
length 87.5465;
};

object overhead_line {
configuration object line_configuration {
spacing object line_spacing {
distance_BC 7.0;
name 20881-LINESPACING;
distance_CN 5.0;
distance_AC 4.5;
distance_AN 4.272002;
distance_AB 2.5;
distance_BN 5.656854;
};
conductor_A object overhead_line_conductor {
resistance 0.303;
geometric_mean_radius 0.0221;
};
conductor_B object overhead_line_conductor {
resistance 0.303;
geometric_mean_radius 0.0221;
};
name 20881-LINECONFIG;
conductor_N object overhead_line_conductor {
resistance 0.303;
geometric_mean_radius 0.0221;
};
conductor_C object overhead_line_conductor {
resistance 0.303;
geometric_mean_radius 0.0221;
};
};
phases ABCN;
from node2088120837;
name 20881;
to node2044520881;
length 281.156;
};

object overhead_line {
configuration object line_configuration {
spacing object line_spacing {
distance_BC 7.0;
name 20445-LINESPACING;
distance_CN 5.0;
distance_AC 4.5;
distance_AN 4.272002;
distance_AB 2.5;
distance_BN 5.656854;
};
conductor_A object overhead_line_conductor {
resistance 0.303;
geometric_mean_radius 0.0221;
};
conductor_B object overhead_line_conductor {
resistance 0.303;
geometric_mean_radius 0.0221;
};
name 20445-LINECONFIG;
conductor_N object overhead_line_conductor {
resistance 0.303;
geometric_mean_radius 0.0221;
};
conductor_C object overhead_line_conductor {
resistance 0.303;
geometric_mean_radius 0.0221;
};
};
phases ABCN;
from node2044520881;
name 20445;
to node2054920445;
length 465.786;
};

object overhead_line {
configuration object line_configuration {
spacing object line_spacing {
distance_BC 7.0;
name 20549-LINESPACING;
distance_CN 5.0;
distance_AC 4.5;
distance_AN 4.272002;
distance_AB 2.5;
distance_BN 5.656854;
};
conductor_A object overhead_line_conductor {
resistance 0.303;
geometric_mean_radius 0.0221;
};
conductor_B object overhead_line_conductor {
resistance 0.303;
geometric_mean_radius 0.0221;
};
name 20549-LINECONFIG;
conductor_N object overhead_line_conductor {
resistance 0.303;
geometric_mean_radius 0.0221;
};
conductor_C object overhead_line_conductor {
resistance 0.303;
geometric_mean_radius 0.0221;
};
};
phases ABCN;
from node2054920445;
name 20549;
to node2036920549;
length 212.612;
};

object overhead_line {
configuration object line_configuration {
spacing object line_spacing {
distance_BC 7.0;
name 20369-LINESPACING;
distance_CN 5.0;
distance_AC 4.5;
distance_AN 4.272002;
distance_AB 2.5;
distance_BN 5.656854;
};
conductor_A object overhead_line_conductor {
resistance 0.303;
geometric_mean_radius 0.0221;
};
conductor_B object overhead_line_conductor {
resistance 0.303;
geometric_mean_radius 0.0221;
};
name 20369-LINECONFIG;
conductor_N object overhead_line_conductor {
resistance 0.303;
geometric_mean_radius 0.0221;
};
conductor_C object overhead_line_conductor {
resistance 0.303;
geometric_mean_radius 0.0221;
};
};
phases ABCN;
from node2036920549;
name 20369;
to node2050620369;
length 302.735;
};

object overhead_line {
configuration object line_configuration {
spacing object line_spacing {
distance_BC 7.0;
name 20506-LINESPACING;
distance_CN 5.0;
distance_AC 4.5;
distance_AN 4.272002;
distance_AB 2.5;
distance_BN 5.656854;
};
conductor_A object overhead_line_conductor {
resistance 0.303;
geometric_mean_radius 0.0221;
};
conductor_B object overhead_line_conductor {
resistance 0.303;
geometric_mean_radius 0.0221;
};
name 20506-LINECONFIG;
conductor_N object overhead_line_conductor {
resistance 0.303;
geometric_mean_radius 0.0221;
};
conductor_C object overhead_line_conductor {
resistance 0.303;
geometric_mean_radius 0.0221;
};
};
phases ABCN;
from node2050620369;
name 20506;
to node2036720506;
length 178.526;
};

object overhead_line {
configuration object line_configuration {
spacing object line_spacing {
distance_BC 7.0;
name 20367-LINESPACING;
distance_CN 5.0;
distance_AC 4.5;
distance_AN 4.272002;
distance_AB 2.5;
distance_BN 5.656854;
};
conductor_A object overhead_line_conductor {
resistance 0.303;
geometric_mean_radius 0.0221;
};
conductor_B object overhead_line_conductor {
resistance 0.303;
geometric_mean_radius 0.0221;
};
name 20367-LINECONFIG;
conductor_N object overhead_line_conductor {
resistance 0.303;
geometric_mean_radius 0.0221;
};
conductor_C object overhead_line_conductor {
resistance 0.303;
geometric_mean_radius 0.0221;
};
};
phases ABCN;
from node2036720506;
name 20367;
to nodeT6246302788020367;
length 144.103;
};

object transformer {
configuration object transformer_configuration {
powerC_rating 50 kVA;
name T62463027880-CONFIG;
shunt_impedance 10000+10000j;
secondary_voltage 120.0;
connect_type SINGLE_PHASE_CENTER_TAPPED;
impedance 0.00033+0.0022j;
primary_voltage 7200.0;
powerB_rating 50 kVA;
powerA_rating 50 kVA;
};
phases BN;
from nodeT6246302788020367;
name T62463027880;
to node62463027798T62463027880;
};

object load {
phases BN;
load_class R;
name 62463027798;
parent node62463027798T62463027880;
constant_power_C 0.0;
constant_power_A 0.0;
nominal_voltage 120;
constant_power_B 698.961;
};

object overhead_line {
configuration object line_configuration {
spacing object line_spacing {
distance_BC 7.0;
name 20286-LINESPACING;
distance_CN 5.0;
distance_AC 4.5;
distance_AN 4.272002;
distance_AB 2.5;
distance_BN 5.656854;
};
conductor_A object overhead_line_conductor {
resistance 0.303;
geometric_mean_radius 0.0221;
};
conductor_B object overhead_line_conductor {
resistance 0.303;
geometric_mean_radius 0.0221;
};
name 20286-LINECONFIG;
conductor_N object overhead_line_conductor {
resistance 0.303;
geometric_mean_radius 0.0221;
};
conductor_C object overhead_line_conductor {
resistance 0.303;
geometric_mean_radius 0.0221;
};
};
phases ABCN;
from nodeT6246302788020367;
name 20286;
to node2024820286;
length 266.66;
};

object overhead_line {
configuration object line_configuration {
spacing object line_spacing {
distance_BC 7.0;
name 20248-LINESPACING;
distance_CN 5.0;
distance_AC 4.5;
distance_AN 4.272002;
distance_AB 2.5;
distance_BN 5.656854;
};
conductor_A object overhead_line_conductor {
resistance 0.303;
geometric_mean_radius 0.0221;
};
conductor_B object overhead_line_conductor {
resistance 0.303;
geometric_mean_radius 0.0221;
};
name 20248-LINECONFIG;
conductor_N object overhead_line_conductor {
resistance 0.303;
geometric_mean_radius 0.0221;
};
conductor_C object overhead_line_conductor {
resistance 0.303;
geometric_mean_radius 0.0221;
};
};
phases ABCN;
from node2024820286;
name 20248;
to node2014520248;
length 153.517;
};

object overhead_line {
configuration object line_configuration {
spacing object line_spacing {
distance_BC 7.0;
name 20145-LINESPACING;
distance_CN 5.0;
distance_AC 4.5;
distance_AN 4.272002;
distance_AB 2.5;
distance_BN 5.656854;
};
conductor_A object overhead_line_conductor {
resistance 0.303;
geometric_mean_radius 0.0221;
};
conductor_B object overhead_line_conductor {
resistance 0.303;
geometric_mean_radius 0.0221;
};
name 20145-LINECONFIG;
conductor_N object overhead_line_conductor {
resistance 0.303;
geometric_mean_radius 0.0221;
};
conductor_C object overhead_line_conductor {
resistance 0.303;
geometric_mean_radius 0.0221;
};
};
phases ABCN;
from node2014520248;
name 20145;
to nodeT6246302460920145;
length 357.003;
};

object overhead_line {
configuration object line_configuration {
spacing object line_spacing {
distance_BC 7.0;
name 20129-LINESPACING;
distance_CN 5.0;
distance_AC 4.5;
distance_AN 4.272002;
distance_AB 2.5;
distance_BN 5.656854;
};
conductor_A object overhead_line_conductor {
resistance 1.69;
geometric_mean_radius 0.00418;
};
name 20129-LINECONFIG;
conductor_N object overhead_line_conductor {
resistance 1.69;
geometric_mean_radius 0.00418;
};
};
phases AN;
from nodeT6246302460920145;
name 20129;
to nodeF894420129;
length 27.7071;
};

object fuse {
phases AN;
from nodeF894420129;
name F8944;
current_limit 9999.0 A;
to node20130F8944;
};

object overhead_line {
configuration object line_configuration {
spacing object line_spacing {
distance_BC 7.0;
name 20130-LINESPACING;
distance_CN 5.0;
distance_AC 4.5;
distance_AN 4.272002;
distance_AB 2.5;
distance_BN 5.656854;
};
conductor_A object overhead_line_conductor {
resistance 1.69;
geometric_mean_radius 0.00418;
};
name 20130-LINECONFIG;
conductor_N object overhead_line_conductor {
resistance 1.69;
geometric_mean_radius 0.00418;
};
};
phases AN;
from node20130F8944;
name 20130;
to nodeT6246302377520130;
length 103.665;
};

object transformer {
configuration object transformer_configuration {
powerC_rating 50 kVA;
name T62463023775-CONFIG;
shunt_impedance 10000+10000j;
secondary_voltage 120.0;
connect_type SINGLE_PHASE_CENTER_TAPPED;
impedance 0.00033+0.0022j;
primary_voltage 7200.0;
powerB_rating 50 kVA;
powerA_rating 50 kVA;
};
phases AN;
from nodeT6246302377520130;
name T62463023775;
to node62463024800T62463023775;
};

object load {
phases AN;
load_class R;
name 62463024800;
parent node62463024800T62463023775;
constant_power_C 0.0;
constant_power_A 6073.65;
nominal_voltage 120;
constant_power_B 0.0;
};

object load {
phases AN;
load_class R;
name 62463023758;
parent node62463024800T62463023775;
constant_power_C 0.0;
constant_power_A 880.641;
nominal_voltage 120;
constant_power_B 0.0;
};

object overhead_line {
configuration object line_configuration {
spacing object line_spacing {
distance_BC 7.0;
name 20050-LINESPACING;
distance_CN 5.0;
distance_AC 4.5;
distance_AN 4.272002;
distance_AB 2.5;
distance_BN 5.656854;
};
conductor_A object overhead_line_conductor {
resistance 0.303;
geometric_mean_radius 0.0221;
};
conductor_B object overhead_line_conductor {
resistance 0.303;
geometric_mean_radius 0.0221;
};
name 20050-LINECONFIG;
conductor_N object overhead_line_conductor {
resistance 0.303;
geometric_mean_radius 0.0221;
};
conductor_C object overhead_line_conductor {
resistance 0.303;
geometric_mean_radius 0.0221;
};
};
phases ABCN;
from nodeT6246302460920145;
name 20050;
to nodeT6246302267620050;
length 287.2;
};

object transformer {
configuration object transformer_configuration {
powerC_rating 50 kVA;
name T62463022676-CONFIG;
shunt_impedance 10000+10000j;
secondary_voltage 120.0;
connect_type SINGLE_PHASE_CENTER_TAPPED;
impedance 0.00033+0.0022j;
primary_voltage 7200.0;
powerB_rating 50 kVA;
powerA_rating 50 kVA;
};
phases BN;
from nodeT6246302267620050;
name T62463022676;
to node62463022720T62463022676;
};

object load {
phases BN;
load_class R;
name 62463022720;
parent node62463022720T62463022676;
constant_power_C 0.0;
constant_power_A 0.0;
nominal_voltage 120;
constant_power_B 4547.03;
};

object overhead_line {
configuration object line_configuration {
spacing object line_spacing {
distance_BC 7.0;
name 19663-LINESPACING;
distance_CN 5.0;
distance_AC 4.5;
distance_AN 4.272002;
distance_AB 2.5;
distance_BN 5.656854;
};
conductor_A object overhead_line_conductor {
resistance 0.303;
geometric_mean_radius 0.0221;
};
conductor_B object overhead_line_conductor {
resistance 0.303;
geometric_mean_radius 0.0221;
};
name 19663-LINECONFIG;
conductor_N object overhead_line_conductor {
resistance 0.303;
geometric_mean_radius 0.0221;
};
conductor_C object overhead_line_conductor {
resistance 0.303;
geometric_mean_radius 0.0221;
};
};
phases ABCN;
from nodeT6246302267620050;
name 19663;
to nodeT6246302166319663;
length 211.226;
};

object transformer {
configuration object transformer_configuration {
powerC_rating 50 kVA;
name T62463021663-CONFIG;
shunt_impedance 10000+10000j;
secondary_voltage 120.0;
connect_type SINGLE_PHASE_CENTER_TAPPED;
impedance 0.00033+0.0022j;
primary_voltage 7200.0;
powerB_rating 50 kVA;
powerA_rating 50 kVA;
};
phases CN;
from nodeT6246302166319663;
name T62463021663;
to node62463021692T62463021663;
};

object load {
phases CN;
load_class R;
name 62463021692;
parent node62463021692T62463021663;
constant_power_C 73.1765;
constant_power_A 0.0;
nominal_voltage 120;
constant_power_B 0.0;
};

object overhead_line {
configuration object line_configuration {
spacing object line_spacing {
distance_BC 7.0;
name 19935-LINESPACING;
distance_CN 5.0;
distance_AC 4.5;
distance_AN 4.272002;
distance_AB 2.5;
distance_BN 5.656854;
};
conductor_A object overhead_line_conductor {
resistance 0.303;
geometric_mean_radius 0.0221;
};
conductor_B object overhead_line_conductor {
resistance 0.303;
geometric_mean_radius 0.0221;
};
name 19935-LINECONFIG;
conductor_N object overhead_line_conductor {
resistance 0.303;
geometric_mean_radius 0.0221;
};
conductor_C object overhead_line_conductor {
resistance 0.303;
geometric_mean_radius 0.0221;
};
};
phases ABCN;
from nodeT6246302166319663;
name 19935;
to nodeT6246302067019935;
length 194.654;
};

object transformer {
configuration object transformer_configuration {
powerC_rating 50 kVA;
name T62463020670-CONFIG;
shunt_impedance 10000+10000j;
secondary_voltage 120.0;
connect_type SINGLE_PHASE_CENTER_TAPPED;
impedance 0.00033+0.0022j;
primary_voltage 7200.0;
powerB_rating 50 kVA;
powerA_rating 50 kVA;
};
phases BN;
from nodeT6246302067019935;
name T62463020670;
to node62463020586T62463020670;
};

object load {
phases BN;
load_class R;
name 62463020586;
parent node62463020586T62463020670;
constant_power_C 0.0;
constant_power_A 0.0;
nominal_voltage 120;
constant_power_B 4163.49;
};

object overhead_line {
configuration object line_configuration {
spacing object line_spacing {
distance_BC 7.0;
name 19597-LINESPACING;
distance_CN 5.0;
distance_AC 4.5;
distance_AN 4.272002;
distance_AB 2.5;
distance_BN 5.656854;
};
conductor_A object overhead_line_conductor {
resistance 0.303;
geometric_mean_radius 0.0221;
};
conductor_B object overhead_line_conductor {
resistance 0.303;
geometric_mean_radius 0.0221;
};
name 19597-LINECONFIG;
conductor_N object overhead_line_conductor {
resistance 0.303;
geometric_mean_radius 0.0221;
};
conductor_C object overhead_line_conductor {
resistance 0.303;
geometric_mean_radius 0.0221;
};
};
phases ABCN;
from nodeT6246302067019935;
name 19597;
to node1985219597;
length 222.044;
};

object overhead_line {
configuration object line_configuration {
spacing object line_spacing {
distance_BC 7.0;
name 19852-LINESPACING;
distance_CN 5.0;
distance_AC 4.5;
distance_AN 4.272002;
distance_AB 2.5;
distance_BN 5.656854;
};
conductor_A object overhead_line_conductor {
resistance 0.303;
geometric_mean_radius 0.0221;
};
conductor_B object overhead_line_conductor {
resistance 0.303;
geometric_mean_radius 0.0221;
};
name 19852-LINECONFIG;
conductor_N object overhead_line_conductor {
resistance 0.303;
geometric_mean_radius 0.0221;
};
conductor_C object overhead_line_conductor {
resistance 0.303;
geometric_mean_radius 0.0221;
};
};
phases ABCN;
from node1985219597;
name 19852;
to nodeT6246301941419852;
length 273.49;
};

object transformer {
configuration object transformer_configuration {
powerC_rating 50 kVA;
name T62463019414-CONFIG;
shunt_impedance 10000+10000j;
secondary_voltage 120.0;
connect_type SINGLE_PHASE_CENTER_TAPPED;
impedance 0.00033+0.0022j;
primary_voltage 7200.0;
powerB_rating 50 kVA;
powerA_rating 50 kVA;
};
phases AN;
from nodeT6246301941419852;
name T62463019414;
to node62463019437T62463019414;
};

object load {
phases AN;
load_class R;
name 62463019437;
parent node62463019437T62463019414;
constant_power_C 0.0;
constant_power_A 5576.55;
nominal_voltage 120;
constant_power_B 0.0;
};

object overhead_line {
configuration object line_configuration {
spacing object line_spacing {
distance_BC 7.0;
name 19850-LINESPACING;
distance_CN 5.0;
distance_AC 4.5;
distance_AN 4.272002;
distance_AB 2.5;
distance_BN 5.656854;
};
name 19850-LINECONFIG;
conductor_N object overhead_line_conductor {
resistance 1.69;
geometric_mean_radius 0.00418;
};
conductor_C object overhead_line_conductor {
resistance 1.69;
geometric_mean_radius 0.00418;
};
};
phases CN;
from nodeT6246301941419852;
name 19850;
to nodeF757319850;
length 26.5061;
};

object fuse {
phases CN;
from nodeF757319850;
name F7573;
current_limit 9999.0 A;
to node19851F7573;
};

object overhead_line {
configuration object line_configuration {
spacing object line_spacing {
distance_BC 7.0;
name 19851-LINESPACING;
distance_CN 5.0;
distance_AC 4.5;
distance_AN 4.272002;
distance_AB 2.5;
distance_BN 5.656854;
};
name 19851-LINECONFIG;
conductor_N object overhead_line_conductor {
resistance 1.69;
geometric_mean_radius 0.00418;
};
conductor_C object overhead_line_conductor {
resistance 1.69;
geometric_mean_radius 0.00418;
};
};
phases CN;
from node19851F7573;
name 19851;
to nodeT6246301946719851;
length 80.8867;
};

object transformer {
configuration object transformer_configuration {
powerC_rating 50 kVA;
name T62463019467-CONFIG;
shunt_impedance 10000+10000j;
secondary_voltage 120.0;
connect_type SINGLE_PHASE_CENTER_TAPPED;
impedance 0.00033+0.0022j;
primary_voltage 7200.0;
powerB_rating 50 kVA;
powerA_rating 50 kVA;
};
phases CN;
from nodeT6246301946719851;
name T62463019467;
to node62463019498T62463019467;
};

object load {
phases CN;
load_class R;
name 62463019498;
parent node62463019498T62463019467;
constant_power_C 1519.04;
constant_power_A 0.0;
nominal_voltage 120;
constant_power_B 0.0;
};

object overhead_line {
configuration object line_configuration {
spacing object line_spacing {
distance_BC 7.0;
name 19848-LINESPACING;
distance_CN 5.0;
distance_AC 4.5;
distance_AN 4.272002;
distance_AB 2.5;
distance_BN 5.656854;
};
name 19848-LINECONFIG;
conductor_N object overhead_line_conductor {
resistance 1.69;
geometric_mean_radius 0.00418;
};
conductor_C object overhead_line_conductor {
resistance 1.69;
geometric_mean_radius 0.00418;
};
};
phases CN;
from nodeT6246301941419852;
name 19848;
to nodeF794419848;
length 28.1181;
};

object fuse {
phases CN;
from nodeF794419848;
name F7944;
current_limit 9999.0 A;
to node19849F7944;
};

object overhead_line {
configuration object line_configuration {
spacing object line_spacing {
distance_BC 7.0;
name 19849-LINESPACING;
distance_CN 5.0;
distance_AC 4.5;
distance_AN 4.272002;
distance_AB 2.5;
distance_BN 5.656854;
};
name 19849-LINECONFIG;
conductor_N object overhead_line_conductor {
resistance 1.69;
geometric_mean_radius 0.00418;
};
conductor_C object overhead_line_conductor {
resistance 1.69;
geometric_mean_radius 0.00418;
};
};
phases CN;
from node19849F7944;
name 19849;
to node1959219849;
length 241.85;
};

object overhead_line {
configuration object line_configuration {
spacing object line_spacing {
distance_BC 7.0;
name 19592-LINESPACING;
distance_CN 5.0;
distance_AC 4.5;
distance_AN 4.272002;
distance_AB 2.5;
distance_BN 5.656854;
};
name 19592-LINECONFIG;
conductor_N object overhead_line_conductor {
resistance 1.69;
geometric_mean_radius 0.00418;
};
conductor_C object overhead_line_conductor {
resistance 1.69;
geometric_mean_radius 0.00418;
};
};
phases CN;
from node1959219849;
name 19592;
to node1996419592;
length 320.096;
};

object overhead_line {
configuration object line_configuration {
spacing object line_spacing {
distance_BC 7.0;
name 19964-LINESPACING;
distance_CN 5.0;
distance_AC 4.5;
distance_AN 4.272002;
distance_AB 2.5;
distance_BN 5.656854;
};
name 19964-LINECONFIG;
conductor_N object overhead_line_conductor {
resistance 1.69;
geometric_mean_radius 0.00418;
};
conductor_C object overhead_line_conductor {
resistance 1.69;
geometric_mean_radius 0.00418;
};
};
phases CN;
from node1996419592;
name 19964;
to nodeT6246302228919964;
length 319.967;
};

object transformer {
configuration object transformer_configuration {
powerC_rating 50 kVA;
name T62463022289-CONFIG;
shunt_impedance 10000+10000j;
secondary_voltage 120.0;
connect_type SINGLE_PHASE_CENTER_TAPPED;
impedance 0.00033+0.0022j;
primary_voltage 7200.0;
powerB_rating 50 kVA;
powerA_rating 50 kVA;
};
phases CN;
from nodeT6246302228919964;
name T62463022289;
to node62463022298T62463022289;
};

object load {
phases CN;
load_class R;
name 62463022298;
parent node62463022298T62463022289;
constant_power_C 1655.3;
constant_power_A 0.0;
nominal_voltage 120;
constant_power_B 0.0;
};

object overhead_line {
configuration object line_configuration {
spacing object line_spacing {
distance_BC 7.0;
name 20061-LINESPACING;
distance_CN 5.0;
distance_AC 4.5;
distance_AN 4.272002;
distance_AB 2.5;
distance_BN 5.656854;
};
name 20061-LINECONFIG;
conductor_N object overhead_line_conductor {
resistance 1.69;
geometric_mean_radius 0.00418;
};
conductor_C object overhead_line_conductor {
resistance 1.69;
geometric_mean_radius 0.00418;
};
};
phases CN;
from nodeT6246302228919964;
name 20061;
to node2013220061;
length 203.088;
};

object overhead_line {
configuration object line_configuration {
spacing object line_spacing {
distance_BC 7.0;
name 20132-LINESPACING;
distance_CN 5.0;
distance_AC 4.5;
distance_AN 4.272002;
distance_AB 2.5;
distance_BN 5.656854;
};
name 20132-LINECONFIG;
conductor_N object overhead_line_conductor {
resistance 1.69;
geometric_mean_radius 0.00418;
};
conductor_C object overhead_line_conductor {
resistance 1.69;
geometric_mean_radius 0.00418;
};
};
phases CN;
from node2013220061;
name 20132;
to nodeT6246302425720132;
length 158.947;
};

object transformer {
configuration object transformer_configuration {
powerC_rating 50 kVA;
name T62463024257-CONFIG;
shunt_impedance 10000+10000j;
secondary_voltage 120.0;
connect_type SINGLE_PHASE_CENTER_TAPPED;
impedance 0.00033+0.0022j;
primary_voltage 7200.0;
powerB_rating 50 kVA;
powerA_rating 50 kVA;
};
phases CN;
from nodeT6246302425720132;
name T62463024257;
to node62463025237T62463024257;
};

object load {
phases CN;
load_class R;
name 62463025237;
parent node62463025237T62463024257;
constant_power_C 10133.7;
constant_power_A 0.0;
nominal_voltage 120;
constant_power_B 0.0;
};

object overhead_line {
configuration object line_configuration {
spacing object line_spacing {
distance_BC 7.0;
name 19837-LINESPACING;
distance_CN 5.0;
distance_AC 4.5;
distance_AN 4.272002;
distance_AB 2.5;
distance_BN 5.656854;
};
conductor_A object overhead_line_conductor {
resistance 1.69;
geometric_mean_radius 0.00418;
};
name 19837-LINECONFIG;
conductor_N object overhead_line_conductor {
resistance 1.69;
geometric_mean_radius 0.00418;
};
};
phases AN;
from nodeT6246301941419852;
name 19837;
to nodeF758219837;
length 24.9997;
};

object fuse {
phases AN;
from nodeF758219837;
name F7582;
current_limit 9999.0 A;
to node19770F7582;
};

object overhead_line {
configuration object line_configuration {
spacing object line_spacing {
distance_BC 7.0;
name 19770-LINESPACING;
distance_CN 5.0;
distance_AC 4.5;
distance_AN 4.272002;
distance_AB 2.5;
distance_BN 5.656854;
};
conductor_A object overhead_line_conductor {
resistance 1.69;
geometric_mean_radius 0.00418;
};
name 19770-LINECONFIG;
conductor_N object overhead_line_conductor {
resistance 1.69;
geometric_mean_radius 0.00418;
};
};
phases AN;
from node19770F7582;
name 19770;
to nodeT6246301747919770;
length 260.872;
};

object transformer {
configuration object transformer_configuration {
powerC_rating 50 kVA;
name T62463017479-CONFIG;