clock {
	timezone PST+8PDT;
	starttime '2014-01-01 00:00:00';
	stoptime '2014-01-11 00:00:00';
};

#set minimum_timestep=3600;
#set profiler=1;
#set relax_naming_rules=1;
module generators;
module tape;
module residential {
	implicit_enduses NONE;
};

module powerflow {
	solver_method FBS;
};

object node {
	phases ABCN;
	name SUPER ARBOR LAKE;
	bustype SWING;
	nominal_voltage 7200.0;
};

object underground_line {
	phases ABC;
	from SUPER ARBOR LAKE;
	name SUPER LINK;
	to ARBOR LAKE;
	nominal_voltage 7200.0;
	configuration 1151929-LINECONFIG;
};

object node {
	phases ABCN;
	name ARBOR LAKE;
	nominal_voltage 7200.0;
};

object underground_line {
	phases ACB;
	from ARBOR LAKE;
	name 1069647;
	to nodeD956171069647;
	length 19;
	configuration 1151929-LINECONFIG;
};

object fuse {
	phases ACB;
	from nodeD956171069647;
	name D95617;
	current_limit 9999.0 A;
	to node1077548D95617;
};

object underground_line {
	phases ACB;
	from node1077548D95617;
	name 1077548;
	to node11005201077548;
	length 10;
	configuration 1151929-LINECONFIG;
};

object underground_line {
	phases ACB;
	from node11005201077548;
	name 1100520;
	to node95881-B1100520;
	length 308;
	configuration 1151929-LINECONFIG;
};

object switch {
	status CLOSED;
	phases ACB;
	from node95881-B1100520;
	name 95881-B;
	to node95881-A95881-B;
};

object switch {
	status CLOSED;
	phases ACB;
	from node95881-A95881-B;
	name 95881-A;
	to node110052195881-A;
};

object underground_line {
	phases ACB;
	from node110052195881-A;
	name 1100521;
	to node10740441100521;
	length 10;
	configuration 1151929-LINECONFIG;
};

object underground_line {
	phases ACB;
	from node10740441100521;
	name 1074044;
	to node94914-A1074044;
	length 28;
	configuration 1151929-LINECONFIG;
};

object underground_line {
	phases ACB;
	from node10740441100521;
	name 1074052;
	to node95154-A1074052;
	length 25;
	configuration 1151929-LINECONFIG;
};

object underground_line {
	phases ACB;
	from node10740441100521;
	name 1100523;
	to node96360-B1100523;
	length 10;
	configuration 1151929-LINECONFIG;
};

object switch {
	status CLOSED;
	phases ACB;
	from node96360-B1100523;
	name 96360-B;
	to node96360-A96360-B;
};

object switch {
	status CLOSED;
	phases ACB;
	from node96360-A96360-B;
	name 96360-A;
	to node110052496360-A;
};

object underground_line {
	phases ACB;
	from node110052496360-A;
	name 1100524;
	to node95667-B1100524;
	length 1230;
	configuration 1151929-LINECONFIG;
};

object switch {
	status CLOSED;
	phases ACB;
	from node95667-B1100524;
	name 95667-B;
	to node95667-A95667-B;
};

object switch {
	status CLOSED;
	phases ACB;
	from node95667-A95667-B;
	name 95667-A;
	to node110005995667-A;
};

object underground_line {
	phases ACB;
	from node110005995667-A;
	name 1100059;
	to node11000811100059;
	length 10;
	configuration 1151929-LINECONFIG;
};

object underground_line {
	phases ACB;
	from node11000811100059;
	name 1100081;
	to node96224-B1100081;
	length 10;
	configuration 1151929-LINECONFIG;
};

object switch {
	status CLOSED;
	phases ACB;
	from node96224-B1100081;
	name 96224-B;
	to node96224-A96224-B;
};

object switch {
	status CLOSED;
	phases ACB;
	from node96224-A96224-B;
	name 96224-A;
	to node110075296224-A;
};

object underground_line {
	phases ACB;
	from node110075296224-A;
	name 1100752;
	to node95990-B1100752;
	length 1676;
	configuration 1151929-LINECONFIG;
};

object switch {
	status CLOSED;
	phases ACB;
	from node95990-B1100752;
	name 95990-B;
	to node95990-A95990-B;
};

object switch {
	status CLOSED;
	phases ACB;
	from node95990-A95990-B;
	name 95990-A;
	to node110075395990-A;
};

object underground_line {
	phases ACB;
	from node110075395990-A;
	name 1100753;
	to node11007551100753;
	length 10;
	configuration 1151929-LINECONFIG;
};

object underground_line {
	phases ACB;
	from node11007551100753;
	name 1100755;
	to nodeR963981100755;
	length 21;
	configuration 1094591-LINECONFIG;
};

object fuse {
	phases ACB;
	from nodeR963981100755;
	name R96398;
	current_limit 9999.0 A;
	to node1100754R96398;
};

object underground_line {
	phases ACB;
	from node1100754R96398;
	name 1100754;
	to node10944981100754;
	length 501;
	configuration 1094591-LINECONFIG;
};

object underground_line {
	phases ACB;
	from node10944981100754;
	name 1094498;
	to node10944971094498;
	length 901;
	configuration 1094591-LINECONFIG;
};

object underground_line {
	phases ACB;
	from node10944971094498;
	name 1094497;
	to node10944951094497;
	length 785;
	configuration 1094591-LINECONFIG;
};

object underground_line {
	phases ACB;
	from node10944951094497;
	name 1094495;
	to node11022481094495;
	length 357;
	configuration 1094591-LINECONFIG;
};

object underground_line {
	phases ACB;
	from node11022481094495;
	name 1102248;
	to node96061-A1102248;
	length 185;
	configuration 1094591-LINECONFIG;
};

object underground_line {
	phases ACB;
	from node11007551100753;
	name 1100758;
	to nodeR963991100758;
	length 17;
	configuration 1094591-LINECONFIG;
};

object fuse {
	phases ACB;
	from nodeR963991100758;
	name R96399;
	current_limit 9999.0 A;
	to node1100756R96399;
};

object underground_line {
	phases ACB;
	from node1100756R96399;
	name 1100756;
	to node10946511100756;
	length 44;
	configuration 1094591-LINECONFIG;
};

object underground_line {
	phases ACB;
	from node10946511100756;
	name 1094651;
	to node10945921094651;
	length 1262;
	configuration 1094591-LINECONFIG;
};

object underground_line {
	phases ACB;
	from node10945921094651;
	name 1094592;
	to node10945911094592;
	length 671;
	configuration 1094591-LINECONFIG;
};

object line_configuration {
	name 1094591-LINECONFIG;
	spacing 1085257-LINESPACING;
	conductor_A 1085565-LINECONFIGunderground_line_conductor57303;
	conductor_C 1085565-LINECONFIGunderground_line_conductor57303;
	conductor_B 1085565-LINECONFIGunderground_line_conductor57303;
};

object underground_line {
	phases ACB;
	from node10945911094592;
	name 1094591;
	to node11013091094591;
	length 110;
	configuration 1094591-LINECONFIG;
};

object underground_line {
	phases ACB;
	from node11013091094591;
	name 1101309;
	to node11012991101309;
	length 167;
	configuration 1094591-LINECONFIG;
};

object underground_line {
	phases ACB;
	from node11012991101309;
	name 1101299;
	to node95259-A1101299;
	length 510;
	configuration 1094591-LINECONFIG;
};

object underground_line {
	phases ACB;
	from node11007551100753;
	name 1104457;
	to node98664-B1104457;
	length 10;
	configuration 1151929-LINECONFIG;
};

object switch {
	status CLOSED;
	phases ACB;
	from node98664-B1104457;
	name 98664-B;
	to node98664-A98664-B;
};

object switch {
	status CLOSED;
	phases ACB;
	from node98664-A98664-B;
	name 98664-A;
	to node110445598664-A;
};

object underground_line {
	phases ACB;
	from node110445598664-A;
	name 1104455;
	to node102921-A1104455;
	length 349;
	configuration 1151929-LINECONFIG;
};

object underground_line {
	phases ACB;
	from node11000811100059;
	name 1100121;
	to nodeR962031100121;
	length 10;
	configuration 1094591-LINECONFIG;
};

object fuse {
	phases ACB;
	from nodeR962031100121;
	name R96203;
	current_limit 9999.0 A;
	to node1100122R96203;
};

object underground_line {
	phases ACB;
	from node1100122R96203;
	name 1100122;
	to node10726521100122;
	length 10;
	configuration 1094591-LINECONFIG;
};

object underground_line {
	phases ACB;
	from node10726521100122;
	name 1100080;
	to node10945751100080;
	length 199;
	configuration 1094591-LINECONFIG;
};

object underground_line {
	phases ACB;
	from node10945751100080;
	name 1094575;
	to node10942471094575;
	length 224;
	configuration 1094591-LINECONFIG;
};

object underground_line {
	phases ACB;
	from node10942471094575;
	name 1094247;
	to node95259-B1094247;
	length 68;
	configuration 1094591-LINECONFIG;
};

object underground_line {
	phases ACB;
	from node11000811100059;
	name 1100134;
	to nodeR962041100134;
	length 10;
	configuration 1094591-LINECONFIG;
};

object fuse {
	phases ACB;
	from nodeR962041100134;
	name R96204;
	current_limit 9999.0 A;
	to node1100133R96204;
};

object underground_line {
	phases ACB;
	from node1100133R96204;
	name 1100133;
	to node11549841100133;
	length 324;
	configuration 1094591-LINECONFIG;
};

object underground_line {
	phases ACB;
	from node11549841100133;
	name 1154984;
	to node11549831154984;
	length 80;
	configuration 1094591-LINECONFIG;
};

object underground_line {
	phases ACB;
	from node11549831154984;
	name 1154983;
	to node11549791154983;
	length 81;
	configuration 1094591-LINECONFIG;
};

object underground_line {
	phases ACB;
	from node11549791154983;
	name 1154979;
	to node10942501154979;
	length 305;
	configuration 1094591-LINECONFIG;
};

object underground_line {
	phases ACB;
	from node10942501154979;
	name 1094250;
	to node10942491094250;
	length 405;
	configuration 1094591-LINECONFIG;
};

object underground_line {
	phases ACB;
	from node10942491094250;
	name 1094249;
	to node10944761094249;
	length 399;
	configuration 1094591-LINECONFIG;
};

object underground_line {
	phases ACB;
	from node10944761094249;
	name 1094476;
	to node10944751094476;
	length 221;
	configuration 1094591-LINECONFIG;
};

object underground_line {
	phases ACB;
	from node10944751094476;
	name 1094475;
	to node11163741094475;
	length 204;
	configuration 1094591-LINECONFIG;
};

object underground_line {
	phases ACB;
	from node11163741094475;
	name 1116374;
	to node101341-B1116374;
	length 30;
	configuration 1094591-LINECONFIG;
};

object underground_line {
	phases ACB;
	from ARBOR LAKE;
	name 1069649;
	to nodeF956161069649;
	length 19;
	configuration 1151929-LINECONFIG;
};

object fuse {
	phases ACB;
	from nodeF956161069649;
	name F95616;
	current_limit 9999.0 A;
	to node1077546F95616;
};

object underground_line {
	phases ACB;
	from node1077546F95616;
	name 1077546;
	to node10775471077546;
	length 10;
	configuration 1151929-LINECONFIG;
};

object underground_line {
	phases ACB;
	from node10775471077546;
	name 1077547;
	to node11005901077547;
	length 10;
	configuration 1151929-LINECONFIG;
};

object underground_line {
	phases ACB;
	from node11005901077547;
	name 1100590;
	to node96361-A1100590;
	length 274;
	configuration 1151929-LINECONFIG;
};

object underground_line {
	phases ACB;
	from ARBOR LAKE;
	name 1069650;
	to nodeF956151069650;
	length 23;
	configuration 1151929-LINECONFIG;
};

object fuse {
	phases ACB;
	from nodeF956151069650;
	name F95615;
	current_limit 9999.0 A;
	to node1077544F95615;
};

object underground_line {
	phases ACB;
	from node1077544F95615;
	name 1077544;
	to node11005921077544;
	length 10;
	configuration 1151929-LINECONFIG;
};

object underground_line {
	phases ACB;
	from node11005921077544;
	name 1100592;
	to node95883-B1100592;
	length 259;
	configuration 1151929-LINECONFIG;
};

object switch {
	status CLOSED;
	phases ACB;
	from node95883-B1100592;
	name 95883-B;
	to node95883-A95883-B;
};

object switch {
	status CLOSED;
	phases ACB;
	from node95883-A95883-B;
	name 95883-A;
	to node110059395883-A;
};

object underground_line {
	phases ACB;
	from node110059395883-A;
	name 1100593;
	to node10740461100593;
	length 10;
	configuration 1151929-LINECONFIG;
};

object underground_line {
	phases ACB;
	from node10740461100593;
	name 1074046;
	to node94920-B1074046;
	length 24;
	configuration 1151929-LINECONFIG;
};

object underground_line {
	phases ACB;
	from node10740461100593;
	name 1074047;
	to node94921-B1074047;
	length 25;
	configuration 1151929-LINECONFIG;
};

object underground_line {
	phases ACB;
	from node10740461100593;
	name 1100594;
	to node96362-B1100594;
	length 10;
	configuration 1151929-LINECONFIG;
};

object switch {
	status CLOSED;
	phases ACB;
	from node96362-B1100594;
	name 96362-B;
	to node96362-A96362-B;
};

object switch {
	status CLOSED;
	phases ACB;
	from node96362-A96362-B;
	name 96362-A;
	to node110059596362-A;
};

object underground_line {
	phases ACB;
	from node110059596362-A;
	name 1100595;
	to node95690-B1100595;
	length 3552;
	configuration 1151929-LINECONFIG;
};

object switch {
	status CLOSED;
	phases ACB;
	from node95690-B1100595;
	name 95690-B;
	to node95690-A95690-B;
};

object switch {
	status CLOSED;
	phases ACB;
	from node95690-A95690-B;
	name 95690-A;
	to node110016795690-A;
};

object underground_line {
	phases ACB;
	from node110016795690-A;
	name 1100167;
	to node10757451100167;
	length 10;
	configuration 1151929-LINECONFIG;
};

object underground_line {
	phases ACB;
	from node10757451100167;
	name 1075745;
	to node95124-A1075745;
	length 61;
	configuration 1100101-LINECONFIG;
};

object underground_line {
	phases ACB;
	from node10757451100167;
	name 1078947;
	to nodeR928831078947;
	length 23;
	configuration 1085257-LINECONFIG;
};

object fuse {
	phases ACB;
	from nodeR928831078947;
	name R92883;
	current_limit 9999.0 A;
	to node1091470R92883;
};

object underground_line {
	phases ACB;
	from node1091470R92883;
	name 1091470;
	to node10914711091470;
	length 104;
	configuration 1085257-LINECONFIG;
};

object underground_line {
	phases ACB;
	from node10914711091470;
	name 1091471;
	to node10914581091471;
	length 803;
	configuration 1085257-LINECONFIG;
};

object underground_line {
	phases ACB;
	from node10914581091471;
	name 1091458;
	to node10914571091458;
	length 488;
	configuration 1085257-LINECONFIG;
};

object underground_line {
	phases ACB;
	from node10914571091458;
	name 1091457;
	to node95130-A1091457;
	length 112;
	configuration 1085257-LINECONFIG;
};

object underground_line {
	phases ACB;
	from node10757451100167;
	name 1100195;
	to node96240-B1100195;
	length 10;
	configuration 1100101-LINECONFIG;
};

object switch {
	status CLOSED;
	phases ACB;
	from node96240-B1100195;
	name 96240-B;
	to node96240-A96240-B;
};

object switch {
	status CLOSED;
	phases ACB;
	from node96240-A96240-B;
	name 96240-A;
	to node110061196240-A;
};

object underground_line {
	phases ACB;
	from node110061196240-A;
	name 1100611;
	to node95912-B1100611;
	length 1149;
	configuration 1100101-LINECONFIG;
};

object switch {
	status CLOSED;
	phases ACB;
	from node95912-B1100611;
	name 95912-B;
	to node95912-A95912-B;
};

object switch {
	status CLOSED;
	phases ACB;
	from node95912-A95912-B;
	name 95912-A;
	to node110060495912-A;
};

object underground_line {
	phases ACB;
	from node110060495912-A;
	name 1100604;
	to node10808451100604;
	length 10;
	configuration 1100101-LINECONFIG;
};

object underground_line {
	phases B;
	from node10808451100604;
	name 1080845;
	to nodeD938711080845;
	length 21.7276;
	configuration 1075245-LINECONFIG;
};

object fuse {
	phases B;
	from nodeD938711080845;
	name D93871;
	current_limit 9999.0 A;
	to node1080846D93871;
};

object underground_line {
	phases B;
	from node1080846D93871;
	name 1080846;
	to node4403841080846;
	length 60.6879;
	configuration 1075245-LINECONFIG;
};

object underground_line {
	phases ACB;
	from node10808451100604;
	name 1100615;
	to node96366-B1100615;
	length 10;
	configuration 1100101-LINECONFIG;
};

object switch {
	status CLOSED;
	phases ACB;
	from node96366-B1100615;
	name 96366-B;
	to node96366-A96366-B;
};

object switch {
	status CLOSED;
	phases ACB;
	from node96366-A96366-B;
	name 96366-A;
	to node110061496366-A;
};

object underground_line {
	phases ACB;
	from node110061496366-A;
	name 1100614;
	to node95646-B1100614;
	length 571;
	configuration 1100101-LINECONFIG;
};

object switch {
	status CLOSED;
	phases ACB;
	from node95646-B1100614;
	name 95646-B;
	to node95646-A95646-B;
};

object switch {
	status CLOSED;
	phases ACB;
	from node95646-A95646-B;
	name 95646-A;
	to node110010295646-A;
};

object underground_line {
	phases ACB;
	from node110010295646-A;
	name 1100102;
	to node10808471100102;
	length 10;
	configuration 1100101-LINECONFIG;
};

object underground_line {
	phases ACB;
	from node10808471100102;
	name 1080847;
	to nodeR938721080847;
	length 21;
	configuration 1085257-LINECONFIG;
};

object fuse {
	phases ACB;
	from nodeR938721080847;
	name R93872;
	current_limit 9999.0 A;
	to node1091454R93872;
};

object underground_line {
	phases ACB;
	from node1091454R93872;
	name 1091454;
	to node10914551091454;
	length 537;
	configuration 1085257-LINECONFIG;
};

object underground_line {
	phases ACB;
	from node10914551091454;
	name 1091455;
	to node10914561091455;
	length 366;
	configuration 1085257-LINECONFIG;
};

object underground_line {
	phases ACB;
	from node10914561091455;
	name 1091456;
	to node95130-B1091456;
	length 487;
	configuration 1085257-LINECONFIG;
};

object underground_line {
	phases ACB;
	from node10808471100102;
	name 1100105;
	to node96212-B1100105;
	length 10;
	configuration 1100101-LINECONFIG;
};

object switch {
	status CLOSED;
	phases ACB;
	from node96212-B1100105;
	name 96212-B;
	to node96212-A96212-B;
};

object switch {
	status CLOSED;
	phases ACB;
	from node96212-A96212-B;
	name 96212-A;
	to node110031696212-A;
};

object underground_line {
	phases ACB;
	from node110031696212-A;
	name 1100316;
	to node95745-B1100316;
	length 554;
	configuration 1100101-LINECONFIG;
};

object switch {
	status CLOSED;
	phases ACB;
	from node95745-B1100316;
	name 95745-B;
	to node95745-A95745-B;
};

object switch {
	status CLOSED;
	phases ACB;
	from node95745-A95745-B;
	name 95745-A;
	to node110031595745-A;
};

object underground_line {
	phases ACB;
	from node110031595745-A;
	name 1100315;
	to node10789641100315;
	length 13;
	configuration 1100101-LINECONFIG;
};

object underground_line {
	phases ACB;
	from node10789641100315;
	name 1078964;
	to nodeR928911078964;
	length 30;
	configuration 1085257-LINECONFIG;
};

object fuse {
	phases ACB;
	from nodeR928911078964;
	name R92891;
	current_limit 9999.0 A;
	to node1085255R92891;
};

object underground_line {
	phases ACB;
	from node1085255R92891;
	name 1085255;
	to node10852571085255;
	length 676;
	configuration 1085257-LINECONFIG;
};

object line_configuration {
	name 1085257-LINECONFIG;
	spacing 1085257-LINESPACING;
	conductor_A 1085257-LINECONFIGunderground_line_conductor24505;
	conductor_C 1085257-LINECONFIGunderground_line_conductor24505;
	conductor_B 1085257-LINECONFIGunderground_line_conductor24505;
};

object line_spacing {
	distance_AN 0.0;
	name 1085257-LINESPACING;
	distance_CN 0.0;
	distance_BC 4.472136;
	distance_AB 4.472136;
	distance_AC 8.000000;
	distance_BN 0.0;
};

object underground_line_conductor {
	conductor_gmr 0.017;
	insulation_relative_permitivitty 2.4;
	conductor_resistance 0.56496;
	shield_resistance 0.000000;
	neutral_gmr 0.0317574;
	outer_diameter 1.359996;
	neutral_strands 11;
	neutral_resistance 1.2672;
	neutral_diameter 0.420036;
	conductor_diameter 0.563000;
	shield_gmr 0.000000;
	name 1085257-LINECONFIGunderground_line_conductor24505;
};

object underground_line {
	phases ACB;
	from node10852571085255;
	name 1085257;
	to node10852561085257;
	length 1031;
	configuration 1085257-LINECONFIG;
};

object underground_line {
	phases ACB;
	from node10852561085257;
	name 1085256;
	to node95160-B1085256;
	length 68;
	configuration 1085257-LINECONFIG;
};

object underground_line {
	phases ACB;
	from node10789641100315;
	name 1100318;
	to node96280-B1100318;
	length 10;
	configuration 1100101-LINECONFIG;
};

object switch {
	status CLOSED;
	phases ACB;
	from node96280-B1100318;
	name 96280-B;
	to node96280-A96280-B;
};

object switch {
	status CLOSED;
	phases ACB;
	from node96280-A96280-B;
	name 96280-A;
	to node110031796280-A;
};

object underground_line {
	phases ACB;
	from node110031796280-A;
	name 1100317;
	to node95644-B1100317;
	length 380;
	configuration 1100101-LINECONFIG;
};

object switch {
	status CLOSED;
	phases ACB;
	from node95644-B1100317;
	name 95644-B;
	to node95644-A95644-B;
};

object switch {
	status CLOSED;
	phases ACB;
	from node95644-A95644-B;
	name 95644-A;
	to node110008895644-A;
};

object underground_line {
	phases ACB;
	from node110008895644-A;
	name 1100088;
	to node10811831100088;
	length 10;
	configuration 1100101-LINECONFIG;
};

object underground_line {
	phases ACB;
	from node10811831100088;
	name 1081183;
	to nodeR940691081183;
	length 28;
	configuration 1085257-LINECONFIG;
};

object fuse {
	phases ACB;
	from nodeR940691081183;
	name R94069;
	current_limit 9999.0 A;
	to node1085262R94069;
};

object underground_line {
	phases ACB;
	from node1085262R94069;
	name 1085262;
	to node10852641085262;
	length 84.3471;
	configuration 1085257-LINECONFIG;
};

object underground_line {
	phases ACB;
	from node10852641085262;
	name 1085264;
	to node10852631085264;
	length 697;
	configuration 1085257-LINECONFIG;
};

object underground_line {
	phases ACB;
	from node10852631085264;
	name 1085263;
	to node94772-B1085263;
	length 294;
	configuration 1085257-LINECONFIG;
};

object underground_line {
	phases ACB;
	from node10811831100088;
	name 1081184;
	to nodeR940701081184;
	length 41;
	configuration 1085257-LINECONFIG;
};

object fuse {
	phases ACB;
	from nodeR940701081184;
	name R94070;
	current_limit 9999.0 A;
	to node1085258R94070;
};

object underground_line {
	phases ACB;
	from node1085258R94070;
	name 1085258;
	to node10852591085258;
	length 399;
	configuration 1085257-LINECONFIG;
};

object underground_line {
	phases ACB;
	from node10852591085258;
	name 1085259;
	to node95160-A1085259;
	length 991;
	configuration 1085257-LINECONFIG;
};

object underground_line {
	phases ACB;
	from node10811831100088;
	name 1100099;
	to node96210-B1100099;
	length 10;
	configuration 1100101-LINECONFIG;
};

object switch {
	status CLOSED;
	phases ACB;
	from node96210-B1100099;
	name 96210-B;
	to node96210-A96210-B;
};

object switch {
	status CLOSED;
	phases ACB;
	from node96210-A96210-B;
	name 96210-A;
	to node110006696210-A;
};

object underground_line {
	phases ACB;
	from node110006696210-A;
	name 1100066;
	to node95645-B1100066;
	length 839;
	configuration 1100101-LINECONFIG;
};

object switch {
	status CLOSED;
	phases ACB;
	from node95645-B1100066;
	name 95645-B;
	to node95645-A95645-B;
};

object switch {
	status CLOSED;
	phases ACB;
	from node95645-A95645-B;
	name 95645-A;
	to node110006595645-A;
};

object underground_line {
	phases ACB;
	from node110006595645-A;
	name 1100065;
	to node10789481100065;
	length 10;
	configuration 1100101-LINECONFIG;
};

object underground_line {
	phases ACB;
	from node10789481100065;
	name 1078948;
	to nodeR928841078948;
	length 43;
	configuration 1085257-LINECONFIG;
};

object fuse {
	phases ACB;
	from nodeR928841078948;
	name R92884;
	current_limit 9999.0 A;
	to node1085269R92884;
};

object underground_line {
	phases ACB;
	from node1085269R92884;
	name 1085269;
	to node10852701085269;
	length 480;
	configuration 1085257-LINECONFIG;
};

object underground_line {
	phases ACB;
	from node10852701085269;
	name 1085270;
	to node10852681085270;
	length 1191;
	configuration 1085257-LINECONFIG;
};

object underground_line {
	phases ACB;
	from node10852681085270;
	name 1085268;
	to node94772-A1085268;
	length 69;
	configuration 1085257-LINECONFIG;
};

object line_configuration {
	name 1100101-LINECONFIG;
	spacing 1085257-LINESPACING;
	conductor_A 1100101-LINECONFIGunderground_line_conductor30004;
	conductor_C 1100101-LINECONFIGunderground_line_conductor30004;
	conductor_B 1100101-LINECONFIGunderground_line_conductor30004;
};

object underground_line_conductor {
	conductor_gmr 0.025;
	insulation_relative_permitivitty 2.4;
	conductor_resistance 0.25344;
	shield_resistance 0.000000;
	neutral_gmr 0.0317574;
	outer_diameter 1.650000;
	neutral_strands 25;
	neutral_resistance 0.53328;
	neutral_diameter 0.420000;
	conductor_diameter 0.880000;
	shield_gmr 0.000000;
	name 1100101-LINECONFIGunderground_line_conductor30004;
};

object underground_line {
	phases ACB;
	from node10789481100065;
	name 1100101;
	to node96211-B1100101;
	length 10;
	configuration 1100101-LINECONFIG;
};

object switch {
	status CLOSED;
	phases ACB;
	from node96211-B1100101;
	name 96211-B;
	to node96211-A96211-B;
};

object switch {
	status CLOSED;
	phases ACB;
	from node96211-A96211-B;
	name 96211-A;
	to node110010096211-A;
};

object underground_line {
	phases ACB;
	from node110010096211-A;
	name 1100100;
	to node94958-B1100100;
	length 33;
	configuration 1100101-LINECONFIG;
};

object underground_line {
	phases ACB;
	from node10808471100102;
	name 1126621;
	to node101704-B1126621;
	length 19;
	configuration 1100101-LINECONFIG;
};

object underground_line {
	phases ACB;
	from ARBOR LAKE;
	name 1069652;
	to nodeF956181069652;
	length 22;
	configuration 1151929-LINECONFIG;
};

object fuse {
	phases ACB;
	from nodeF956181069652;
	name F95618;
	current_limit 9999.0 A;
	to node1077550F95618;
};

object underground_line {
	phases ACB;
	from node1077550F95618;
	name 1077550;
	to node11004761077550;
	length 10;
	configuration 1151929-LINECONFIG;
};

object underground_line {
	phases ACB;
	from node11004761077550;
	name 1100476;
	to node95880-B1100476;
	length 308;
	configuration 1151929-LINECONFIG;
};

object switch {
	status CLOSED;
	phases ACB;
	from node95880-B1100476;
	name 95880-B;
	to node95880-A95880-B;
};

object switch {
	status CLOSED;
	phases ACB;
	from node95880-A95880-B;
	name 95880-A;
	to node110048695880-A;
};

object underground_line {
	phases ACB;
	from node110048695880-A;
	name 1100486;
	to node10740431100486;
	length 10;
	configuration 1151929-LINECONFIG;
};

object underground_line {
	phases ACB;
	from node10740431100486;
	name 1074043;
	to node94914-B1074043;
	length 24;
	configuration 1151929-LINECONFIG;
};

object underground_line {
	phases ACB;
	from node10740431100486;
	name 1100487;
	to node96359-B1100487;
	length 10;
	configuration 1151929-LINECONFIG;
};

object underground_line {
	phases ACB;
	from node10740431100486;
	name 1151990;
	to node102527-B1151990;
	length 10;
	configuration 1151929-LINECONFIG;
};

object switch {
	status CLOSED;
	phases ACB;
	from node102527-B1151990;
	name 102527-B;
	to node102527-A102527-B;
};

object switch {
	status CLOSED;
	phases ACB;
	from node102527-A102527-B;
	name 102527-A;
	to node1151998102527-A;
};

object underground_line {
	phases ACB;
	from node1151998102527-A;
	name 1151998;
	to node11007941151998;
	length 5486;
	configuration 1151929-LINECONFIG;
};

object underground_line {
	phases ACB;
	from node11007941151998;
	name 1100794;
	to node102531-B1100794;
	length 1040;
	configuration 1151929-LINECONFIG;
};

object switch {
	status CLOSED;
	phases ACB;
	from node102531-B1100794;
	name 102531-B;
	to node102531-A102531-B;
};

object switch {
	status CLOSED;
	phases ACB;
	from node102531-A102531-B;
	name 102531-A;
	to node1151928102531-A;
};

object underground_line {
	phases ACB;
	from node1151928102531-A;
	name 1151928;
	to node11519291151928;
	length 10;
	configuration 1151929-LINECONFIG;
};

object line_configuration {
	name 1151929-LINECONFIG;
	spacing 1085257-LINESPACING;
	conductor_A 1077542-LINECONFIGunderground_line_conductor58704;
	conductor_C 1077542-LINECONFIGunderground_line_conductor58704;
	conductor_B 1077542-LINECONFIGunderground_line_conductor58704;
};

object underground_line {
	phases ACB;
	from node11519291151928;
	name 1151929;
	to node102519-B1151929;
	length 18;
	configuration 1151929-LINECONFIG;
};

object switch {
	status CLOSED;
	phases ACB;
	from node102519-B1151929;
	name 102519-B;
	to node102519-A102519-B;
};

object switch {
	status CLOSED;
	phases ACB;
	from node102519-A102519-B;
	name 102519-A;
	to node1151941102519-A;
};

object underground_line {
	phases ACB;
	from node1151941102519-A;
	name 1151941;
	to node95987-B1151941;
	length 125;
	configuration 1151929-LINECONFIG;
};

object switch {
	status CLOSED;
	phases ACB;
	from node95987-B1151941;
	name 95987-B;
	to node95987-A95987-B;
};

object switch {
	status CLOSED;
	phases ACB;
	from node95987-A95987-B;
	name 95987-A;
	to node115193095987-A;
};

object underground_line {
	phases ACB;
	from node115193095987-A;
	name 1151930;
	to node10995851151930;
	length 12;
	configuration 1151929-LINECONFIG;
};

object underground_line {
	phases ACB;
	from node10995851151930;
	name 1099585;
	to node100703-B1099585;
	length 12;
	configuration 1151929-LINECONFIG;
};

object switch {
	status CLOSED;
	phases ACB;
	from node100703-B1099585;
	name 100703-B;
	to node100703-A100703-B;
};

object switch {
	status CLOSED;
	phases ACB;
	from node100703-A100703-B;
	name 100703-A;
	to node1106217100703-A;
};

object underground_line {
	phases ACB;
	from node1106217100703-A;
	name 1106217;
	to node10955541106217;
	length 32;
	configuration 1085257-LINECONFIG;
};

object underground_line {