clock {
timezone EST+8EDT;
timestamp '2000-01-01 0:00:00';
stoptime '2000-01-01 1:00:00';
};

#set profiler=1;
module generators;
module tape;
module powerflow {
solver_method NR;
default_maximum_voltage_error 1e-6;
};

object regulator {
phases ABCN;
from R3-12-47-3_node_2001;
name R3-12-47-3_reg_1;
to R3-12-47-3_meter_109;
configuration feeder_reg_cfg;
};

object regulator {
phases ABCN;
from R3-12-47-3_node_871_2;
name R3-12-47-3_reg_2;
to R3-12-47-3_node_885;
configuration voltage_reg_cfg;
};

object regulator_configuration {
Control OUTPUT_VOLTAGE;
raise_taps 16;
name feeder_reg_cfg;
band_center 7500.0;
tap_pos_A 0;
tap_pos_B 0;
connect_type WYE_WYE;
time_delay 30;
regulation 0.10;
lower_taps 16;
tap_pos_C 0;
band_width 120;
};

object regulator_configuration {
Control OUTPUT_VOLTAGE;
raise_taps 16;
name voltage_reg_cfg;
band_center 7500.0;
tap_pos_A 0;
tap_pos_B 0;
connect_type WYE_WYE;
time_delay 30;
regulation 0.10;
lower_taps 16;
tap_pos_C 0;
band_width 120;
};

object capacitor {
control VOLT;
phases ABCN;
capacitor_A 0.3 MVAr;
name R3-12-47-3_cap_1;
parent R3-12-47-3_node_518;
capacitor_C 0.3 MVAr;
capacitor_B 0.3 MVAr;
pt_phase A;
time_delay 30.0;
nominal_voltage 7200;
cap_nominal_voltage 7200;
voltage_set_low 7100;
control_level INDIVIDUAL;
phases_connected ABC;
dwell_time 30.0;
voltage_set_high 7300;
};

object capacitor {
control VOLT;
phases ABCN;
capacitor_A 0.2 MVAr;
name R3-12-47-3_cap_2;
parent R3-12-47-3_node_1988;
capacitor_C 0.2 MVAr;
capacitor_B 0.2 MVAr;
pt_phase A;
time_delay 30.0;
nominal_voltage 7200;
cap_nominal_voltage 7200;
voltage_set_low 7100;
control_level INDIVIDUAL;
phases_connected ABC;
dwell_time 30.0;
voltage_set_high 7300;
};

object fuse {
status CLOSED;
phases BCN;
from R3-12-47-3_node_12;
name R3-12-47-3_fuse_1;
current_limit 50000;
to R3-12-47-3_node_13;
};

object fuse {
status CLOSED;
phases ABCN;
from R3-12-47-3_node_4;
name R3-12-47-3_fuse_2;
current_limit 50000;
to R3-12-47-3_node_16;
};

object fuse {
status CLOSED;
phases BCN;
from R3-12-47-3_node_32;
name R3-12-47-3_fuse_3;
current_limit 50000;
to R3-12-47-3_node_33;
};

object fuse {
status CLOSED;
phases BCN;
from R3-12-47-3_node_87;
name R3-12-47-3_fuse_4;
current_limit 50000;
to R3-12-47-3_node_88;
};

object fuse {
status CLOSED;
phases BCN;
from R3-12-47-3_node_99;
name R3-12-47-3_fuse_5;
current_limit 50000;
to R3-12-47-3_node_100;
};

object fuse {
status CLOSED;
phases ABCN;
from R3-12-47-3_node_132;
name R3-12-47-3_fuse_6;
current_limit 50000;
to R3-12-47-3_node_133;
};

object fuse {
status CLOSED;
phases ABCN;
from R3-12-47-3_node_151;
name R3-12-47-3_fuse_7;
current_limit 50000;
to R3-12-47-3_node_152;
};

object fuse {
status CLOSED;
phases ACN;
from R3-12-47-3_node_163;
name R3-12-47-3_fuse_8;
current_limit 50000;
to R3-12-47-3_node_164;
};

object fuse {
status CLOSED;
phases ACN;
from R3-12-47-3_node_176;
name R3-12-47-3_fuse_9;
current_limit 50000;
to R3-12-47-3_node_177;
};

object fuse {
status CLOSED;
phases ACN;
from R3-12-47-3_node_188;
name R3-12-47-3_fuse_10;
current_limit 50000;
to R3-12-47-3_node_189;
};

object fuse {
status CLOSED;
phases ABCN;
from R3-12-47-3_node_224;
name R3-12-47-3_fuse_11;
current_limit 50000;
to R3-12-47-3_node_225;
};

object fuse {
status CLOSED;
phases ACN;
from R3-12-47-3_node_243;
name R3-12-47-3_fuse_12;
current_limit 50000;
to R3-12-47-3_node_244;
};

object fuse {
status CLOSED;
phases AN;
from R3-12-47-3_node_252;
name R3-12-47-3_fuse_13;
current_limit 50000;
to R3-12-47-3_node_253;
};

object fuse {
status CLOSED;
phases CN;
from R3-12-47-3_node_266;
name R3-12-47-3_fuse_14;
current_limit 50000;
to R3-12-47-3_node_279;
};

object fuse {
status CLOSED;
phases ABCN;
from R3-12-47-3_node_287;
name R3-12-47-3_fuse_15;
current_limit 50000;
to R3-12-47-3_node_288;
};

object fuse {
status CLOSED;
phases ACN;
from R3-12-47-3_node_280;
name R3-12-47-3_fuse_16;
current_limit 50000;
to R3-12-47-3_node_296;
};

object fuse {
status CLOSED;
phases ABCN;
from R3-12-47-3_node_302;
name R3-12-47-3_fuse_17;
current_limit 50000;
to R3-12-47-3_node_303;
};

object fuse {
status CLOSED;
phases ACN;
from R3-12-47-3_node_305;
name R3-12-47-3_fuse_18;
current_limit 50000;
to R3-12-47-3_node_306;
};

object fuse {
status CLOSED;
phases ABCN;
from R3-12-47-3_node_319;
name R3-12-47-3_fuse_19;
current_limit 50000;
to R3-12-47-3_node_320;
};

object fuse {
status CLOSED;
phases ABCN;
from R3-12-47-3_node_324;
name R3-12-47-3_fuse_20;
current_limit 50000;
to R3-12-47-3_node_325;
};

object fuse {
status CLOSED;
phases BN;
from R3-12-47-3_node_310;
name R3-12-47-3_fuse_21;
current_limit 50000;
to R3-12-47-3_node_326;
};

object fuse {
status CLOSED;
phases ABN;
from R3-12-47-3_node_343;
name R3-12-47-3_fuse_22;
current_limit 50000;
to R3-12-47-3_node_344;
};

object fuse {
status CLOSED;
phases AN;
from R3-12-47-3_node_357;
name R3-12-47-3_fuse_23;
current_limit 50000;
to R3-12-47-3_node_358;
};

object fuse {
status CLOSED;
phases AN;
from R3-12-47-3_node_364;
name R3-12-47-3_fuse_24;
current_limit 50000;
to R3-12-47-3_node_365;
};

object fuse {
status CLOSED;
phases BCN;
from R3-12-47-3_node_368;
name R3-12-47-3_fuse_25;
current_limit 50000;
to R3-12-47-3_node_369;
};

object fuse {
status CLOSED;
phases BCN;
from R3-12-47-3_node_372;
name R3-12-47-3_fuse_26;
current_limit 50000;
to R3-12-47-3_node_373;
};

object fuse {
status CLOSED;
phases CN;
from R3-12-47-3_node_379;
name R3-12-47-3_fuse_27;
current_limit 50000;
to R3-12-47-3_node_380;
};

object fuse {
status CLOSED;
phases ACN;
from R3-12-47-3_node_406;
name R3-12-47-3_fuse_28;
current_limit 50000;
to R3-12-47-3_node_407;
};

object fuse {
status CLOSED;
phases ABN;
from R3-12-47-3_node_425;
name R3-12-47-3_fuse_29;
current_limit 50000;
to R3-12-47-3_node_426;
};

object fuse {
status CLOSED;
phases ACN;
from R3-12-47-3_node_443;
name R3-12-47-3_fuse_30;
current_limit 50000;
to R3-12-47-3_node_444;
};

object fuse {
status CLOSED;
phases ABCN;
from R3-12-47-3_node_459;
name R3-12-47-3_fuse_31;
current_limit 50000;
to R3-12-47-3_node_460;
};

object fuse {
status CLOSED;
phases ACN;
from R3-12-47-3_node_486;
name R3-12-47-3_fuse_32;
current_limit 50000;
to R3-12-47-3_node_487;
};

object fuse {
status CLOSED;
phases ACN;
from R3-12-47-3_node_495;
name R3-12-47-3_fuse_33;
current_limit 50000;
to R3-12-47-3_node_496;
};

object fuse {
status CLOSED;
phases BCN;
from R3-12-47-3_node_498;
name R3-12-47-3_fuse_34;
current_limit 50000;
to R3-12-47-3_node_499;
};

object fuse {
status CLOSED;
phases ABN;
from R3-12-47-3_node_513;
name R3-12-47-3_fuse_35;
current_limit 50000;
to R3-12-47-3_node_514;
};

object fuse {
status CLOSED;
phases ABN;
from R3-12-47-3_node_535;
name R3-12-47-3_fuse_36;
current_limit 50000;
to R3-12-47-3_node_536;
};

object fuse {
status CLOSED;
phases ABN;
from R3-12-47-3_node_554;
name R3-12-47-3_fuse_37;
current_limit 50000;
to R3-12-47-3_node_555;
};

object fuse {
status CLOSED;
phases ABN;
from R3-12-47-3_node_569;
name R3-12-47-3_fuse_38;
current_limit 50000;
to R3-12-47-3_node_570;
};

object fuse {
status CLOSED;
phases ABN;
from R3-12-47-3_node_597;
name R3-12-47-3_fuse_39;
current_limit 50000;
to R3-12-47-3_node_598;
};

object fuse {
status CLOSED;
phases BCN;
from R3-12-47-3_node_612;
name R3-12-47-3_fuse_40;
current_limit 50000;
to R3-12-47-3_node_613;
};

object fuse {
status CLOSED;
phases ACN;
from R3-12-47-3_node_619;
name R3-12-47-3_fuse_41;
current_limit 50000;
to R3-12-47-3_node_620;
};

object fuse {
status CLOSED;
phases ACN;
from R3-12-47-3_node_629;
name R3-12-47-3_fuse_42;
current_limit 50000;
to R3-12-47-3_node_630;
};

object fuse {
status CLOSED;
phases ACN;
from R3-12-47-3_node_644;
name R3-12-47-3_fuse_43;
current_limit 50000;
to R3-12-47-3_node_645;
};

object fuse {
status CLOSED;
phases ABCN;
from R3-12-47-3_node_704;
name R3-12-47-3_fuse_44;
current_limit 50000;
to R3-12-47-3_node_705;
};

object fuse {
status CLOSED;
phases ABCN;
from R3-12-47-3_node_715;
name R3-12-47-3_fuse_45;
current_limit 50000;
to R3-12-47-3_node_716;
};

object fuse {
status CLOSED;
phases ABCN;
from R3-12-47-3_node_712;
name R3-12-47-3_fuse_46;
current_limit 50000;
to R3-12-47-3_node_724;
};

object fuse {
status CLOSED;
phases ACN;
from R3-12-47-3_node_750;
name R3-12-47-3_fuse_47;
current_limit 50000;
to R3-12-47-3_node_751;
};

object fuse {
status CLOSED;
phases ACN;
from R3-12-47-3_node_762;
name R3-12-47-3_fuse_48;
current_limit 50000;
to R3-12-47-3_node_763;
};

object fuse {
status CLOSED;
phases ACN;
from R3-12-47-3_node_766;
name R3-12-47-3_fuse_49;
current_limit 50000;
to R3-12-47-3_node_767;
};

object fuse {
status CLOSED;
phases ABCN;
from R3-12-47-3_node_700;
name R3-12-47-3_fuse_50;
current_limit 50000;
to R3-12-47-3_node_779;
};

object fuse {
status CLOSED;
phases ACN;
from R3-12-47-3_node_783;
name R3-12-47-3_fuse_51;
current_limit 50000;
to R3-12-47-3_node_784;
};

object fuse {
status CLOSED;
phases ACN;
from R3-12-47-3_node_787;
name R3-12-47-3_fuse_52;
current_limit 50000;
to R3-12-47-3_node_788;
};

object fuse {
status CLOSED;
phases ACN;
from R3-12-47-3_node_792;
name R3-12-47-3_fuse_53;
current_limit 50000;
to R3-12-47-3_node_793;
};

object fuse {
status CLOSED;
phases BN;
from R3-12-47-3_node_796;
name R3-12-47-3_fuse_54;
current_limit 50000;
to R3-12-47-3_node_808;
};

object fuse {
status CLOSED;
phases AN;
from R3-12-47-3_node_811;
name R3-12-47-3_fuse_55;
current_limit 50000;
to R3-12-47-3_node_812;
};

object fuse {
status CLOSED;
phases ACN;
from R3-12-47-3_node_820;
name R3-12-47-3_fuse_56;
current_limit 50000;
to R3-12-47-3_node_821;
};

object fuse {
status CLOSED;
phases ACN;
from R3-12-47-3_node_829;
name R3-12-47-3_fuse_57;
current_limit 50000;
to R3-12-47-3_node_830;
};

object fuse {
status CLOSED;
phases ACN;
from R3-12-47-3_node_837;
name R3-12-47-3_fuse_58;
current_limit 50000;
to R3-12-47-3_node_838;
};

object fuse {
status CLOSED;
phases ACN;
from R3-12-47-3_node_859;
name R3-12-47-3_fuse_59;
current_limit 50000;
to R3-12-47-3_node_860;
};

object fuse {
status CLOSED;
phases ABN;
from R3-12-47-3_node_867;
name R3-12-47-3_fuse_60;
current_limit 50000;
to R3-12-47-3_node_868;
};

object fuse {
status CLOSED;
phases ACN;
from R3-12-47-3_node_809;
name R3-12-47-3_fuse_61;
current_limit 50000;
to R3-12-47-3_node_870;
};

object fuse {
status CLOSED;
phases ABN;
from R3-12-47-3_node_880;
name R3-12-47-3_fuse_62;
current_limit 50000;
to R3-12-47-3_node_881;
};

object fuse {
status CLOSED;
phases ABCN;
from R3-12-47-3_node_890;
name R3-12-47-3_fuse_63;
current_limit 50000;
to R3-12-47-3_node_891;
};

object fuse {
status CLOSED;
phases ABN;
from R3-12-47-3_node_895;
name R3-12-47-3_fuse_64;
current_limit 50000;
to R3-12-47-3_node_896;
};

object fuse {
status CLOSED;
phases ABN;
from R3-12-47-3_node_903;
name R3-12-47-3_fuse_65;
current_limit 50000;
to R3-12-47-3_node_904;
};

object fuse {
status CLOSED;
phases ABCN;
from R3-12-47-3_node_907;
name R3-12-47-3_fuse_66;
current_limit 50000;
to R3-12-47-3_node_908;
};

object fuse {
status CLOSED;
phases ABCN;
from R3-12-47-3_node_913;
name R3-12-47-3_fuse_67;
current_limit 50000;
to R3-12-47-3_node_914;
};

object fuse {
status CLOSED;
phases BCN;
from R3-12-47-3_node_925;
name R3-12-47-3_fuse_68;
current_limit 50000;
to R3-12-47-3_node_926;
};

object fuse {
status CLOSED;
phases BCN;
from R3-12-47-3_node_930;
name R3-12-47-3_fuse_69;
current_limit 50000;
to R3-12-47-3_node_931;
};

object fuse {
status CLOSED;
phases BCN;
from R3-12-47-3_node_945;
name R3-12-47-3_fuse_70;
current_limit 50000;
to R3-12-47-3_node_946;
};

object fuse {
status CLOSED;
phases BCN;
from R3-12-47-3_node_949;
name R3-12-47-3_fuse_71;
current_limit 50000;
to R3-12-47-3_node_950;
};

object fuse {
status CLOSED;
phases BCN;
from R3-12-47-3_node_958;
name R3-12-47-3_fuse_72;
current_limit 50000;
to R3-12-47-3_node_959;
};

object fuse {
status CLOSED;
phases ACN;
from R3-12-47-3_node_971;
name R3-12-47-3_fuse_73;
current_limit 50000;
to R3-12-47-3_node_972;
};

object fuse {
status CLOSED;
phases BCN;
from R3-12-47-3_node_980;
name R3-12-47-3_fuse_74;
current_limit 50000;
to R3-12-47-3_node_981;
};

object fuse {
status CLOSED;
phases ABCN;
from R3-12-47-3_node_994;
name R3-12-47-3_fuse_75;
current_limit 50000;
to R3-12-47-3_node_1014;
};

object fuse {
status CLOSED;
phases BCN;
from R3-12-47-3_node_1017;
name R3-12-47-3_fuse_76;
current_limit 50000;
to R3-12-47-3_node_1018;
};

object fuse {
status CLOSED;
phases ABN;
from R3-12-47-3_node_1037;
name R3-12-47-3_fuse_77;
current_limit 50000;
to R3-12-47-3_node_1038;
};

object fuse {
status CLOSED;
phases ABN;
from R3-12-47-3_node_1047;
name R3-12-47-3_fuse_78;
current_limit 50000;
to R3-12-47-3_node_1048;
};

object fuse {
status CLOSED;
phases ABN;
from R3-12-47-3_node_1049;
name R3-12-47-3_fuse_79;
current_limit 50000;
to R3-12-47-3_node_1050;
};

object fuse {
status CLOSED;
phases BCN;
from R3-12-47-3_node_1065;
name R3-12-47-3_fuse_80;
current_limit 50000;
to R3-12-47-3_node_1066;
};

object fuse {
status CLOSED;
phases ABCN;
from R3-12-47-3_node_1085;
name R3-12-47-3_fuse_81;
current_limit 50000;
to R3-12-47-3_node_1086;
};

object fuse {
status CLOSED;
phases ABN;
from R3-12-47-3_node_1129;
name R3-12-47-3_fuse_82;
current_limit 50000;
to R3-12-47-3_node_1130;
};

object fuse {
status CLOSED;
phases ABN;
from R3-12-47-3_node_1133;
name R3-12-47-3_fuse_83;
current_limit 50000;
to R3-12-47-3_node_1134;
};

object fuse {
status CLOSED;
phases ABN;
from R3-12-47-3_node_1156;
name R3-12-47-3_fuse_84;
current_limit 50000;
to R3-12-47-3_node_1157;
};

object fuse {
status CLOSED;
phases ABN;
from R3-12-47-3_node_1163;
name R3-12-47-3_fuse_85;
current_limit 50000;
to R3-12-47-3_node_1164;
};

object fuse {
status CLOSED;
phases ABN;
from R3-12-47-3_node_1126;
name R3-12-47-3_fuse_86;
current_limit 50000;
to R3-12-47-3_node_1174;
};

object fuse {
status CLOSED;
phases BCN;
from R3-12-47-3_node_1217;
name R3-12-47-3_fuse_87;
current_limit 50000;
to R3-12-47-3_node_1218;
};

object fuse {
status CLOSED;
phases ABCN;
from R3-12-47-3_node_1227;
name R3-12-47-3_fuse_88;
current_limit 50000;
to R3-12-47-3_node_1228;
};

object fuse {
status CLOSED;
phases BCN;
from R3-12-47-3_node_1232;
name R3-12-47-3_fuse_89;
current_limit 50000;
to R3-12-47-3_node_1233;
};

object fuse {
status CLOSED;
phases BCN;
from R3-12-47-3_node_1266;
name R3-12-47-3_fuse_90;
current_limit 50000;
to R3-12-47-3_node_1267;
};

object fuse {
status CLOSED;
phases BCN;
from R3-12-47-3_node_1282;
name R3-12-47-3_fuse_91;
current_limit 50000;
to R3-12-47-3_node_1285;
};

object fuse {
status CLOSED;
phases BCN;
from R3-12-47-3_node_1289;
name R3-12-47-3_fuse_92;
current_limit 50000;
to R3-12-47-3_node_1290;
};

object fuse {
status CLOSED;
phases ABN;
from R3-12-47-3_node_1304;
name R3-12-47-3_fuse_93;
current_limit 50000;
to R3-12-47-3_node_1305;
};

object fuse {
status CLOSED;
phases ABN;
from R3-12-47-3_node_1306;
name R3-12-47-3_fuse_94;
current_limit 50000;
to R3-12-47-3_node_1307;
};

object fuse {
status CLOSED;
phases ACN;
from R3-12-47-3_node_1317;
name R3-12-47-3_fuse_95;
current_limit 50000;
to R3-12-47-3_node_1318;
};

object fuse {
status CLOSED;
phases ACN;
from R3-12-47-3_node_1324;
name R3-12-47-3_fuse_96;
current_limit 50000;
to R3-12-47-3_node_1325;
};

object fuse {
status CLOSED;
phases ABCN;
from R3-12-47-3_node_1310;
name R3-12-47-3_fuse_97;
current_limit 50000;
to R3-12-47-3_node_1331;
};

object fuse {
status CLOSED;
phases ABN;
from R3-12-47-3_node_1356;
name R3-12-47-3_fuse_98;
current_limit 50000;
to R3-12-47-3_node_1357;
};

object fuse {
status CLOSED;
phases ACN;
from R3-12-47-3_node_1388;
name R3-12-47-3_fuse_99;
current_limit 50000;
to R3-12-47-3_node_1389;
};

object fuse {
status CLOSED;
phases ABN;
from R3-12-47-3_node_1392;
name R3-12-47-3_fuse_100;
current_limit 50000;
to R3-12-47-3_node_1393;
};

object fuse {
status CLOSED;
phases ABN;
from R3-12-47-3_node_1399;
name R3-12-47-3_fuse_101;
current_limit 50000;
to R3-12-47-3_node_1400;
};

object fuse {
status CLOSED;
phases BCN;
from R3-12-47-3_node_1426;
name R3-12-47-3_fuse_102;
current_limit 50000;
to R3-12-47-3_node_1427;
};

object fuse {
status CLOSED;
phases BCN;
from R3-12-47-3_node_1434;
name R3-12-47-3_fuse_103;
current_limit 50000;
to R3-12-47-3_node_1435;
};

object fuse {
status CLOSED;
phases ACN;
from R3-12-47-3_node_1420;
name R3-12-47-3_fuse_104;
current_limit 50000;
to R3-12-47-3_node_1436;
};

object fuse {
status CLOSED;
phases AN;
from R3-12-47-3_node_1450;
name R3-12-47-3_fuse_105;
current_limit 50000;
to R3-12-47-3_node_1451;
};

object fuse {
status CLOSED;
phases ABCN;
from R3-12-47-3_node_1474;
name R3-12-47-3_fuse_106;
current_limit 50000;
to R3-12-47-3_node_1475;
};

object fuse {
status CLOSED;
phases ABCN;
from R3-12-47-3_node_1505;
name R3-12-47-3_fuse_107;
current_limit 50000;
to R3-12-47-3_node_1506;
};

object fuse {
status CLOSED;
phases BCN;
from R3-12-47-3_node_1511;
name R3-12-47-3_fuse_108;
current_limit 50000;
to R3-12-47-3_node_1512;
};

object fuse {
status CLOSED;
phases ABN;
from R3-12-47-3_node_1523;
name R3-12-47-3_fuse_109;
current_limit 50000;
to R3-12-47-3_node_1524;
};

object fuse {
status CLOSED;
phases ABN;
from R3-12-47-3_node_1530;
name R3-12-47-3_fuse_110;
current_limit 50000;
to R3-12-47-3_node_1531;
};

object fuse {
status CLOSED;
phases ABCN;
from R3-12-47-3_node_1542;
name R3-12-47-3_fuse_111;
current_limit 50000;
to R3-12-47-3_node_1543;
};

object fuse {
status CLOSED;
phases ABCN;
from R3-12-47-3_node_1550;
name R3-12-47-3_fuse_112;
current_limit 50000;
to R3-12-47-3_node_1551;
};

object fuse {
status CLOSED;
phases ABCN;
from R3-12-47-3_node_1555;
name R3-12-47-3_fuse_113;
current_limit 50000;
to R3-12-47-3_node_1556;
};

object fuse {
status CLOSED;
phases ABN;
from R3-12-47-3_node_1580;
name R3-12-47-3_fuse_114;
current_limit 50000;
to R3-12-47-3_node_1581;
};

object fuse {
status CLOSED;
phases ABN;
from R3-12-47-3_node_1588;
name R3-12-47-3_fuse_115;
current_limit 50000;
to R3-12-47-3_node_1589;
};

object fuse {
status CLOSED;
phases ABN;
from R3-12-47-3_node_1612;
name R3-12-47-3_fuse_116;
current_limit 50000;
to R3-12-47-3_node_1613;
};

object fuse {
status CLOSED;
phases ABN;
from R3-12-47-3_node_1633;
name R3-12-47-3_fuse_117;
current_limit 50000;
to R3-12-47-3_node_1634;
};

object fuse {
status CLOSED;
phases ABN;
from R3-12-47-3_node_1650;
name R3-12-47-3_fuse_118;
current_limit 50000;
to R3-12-47-3_node_1651;
};

object fuse {
status CLOSED;
phases BCN;
from R3-12-47-3_node_1656;
name R3-12-47-3_fuse_119;
current_limit 50000;
to R3-12-47-3_node_1657;
};

object fuse {
status CLOSED;
phases ABN;
from R3-12-47-3_node_1665;
name R3-12-47-3_fuse_120;
current_limit 50000;
to R3-12-47-3_node_1666;
};

object fuse {
status CLOSED;
phases ABCN;
from R3-12-47-3_node_1679;
name R3-12-47-3_fuse_121;
current_limit 50000;
to R3-12-47-3_node_1680;
};

object fuse {
status CLOSED;
phases BCN;
from R3-12-47-3_node_1688;
name R3-12-47-3_fuse_122;
current_limit 50000;
to R3-12-47-3_node_1689;
};

object fuse {
status CLOSED;
phases BCN;
from R3-12-47-3_node_1699;
name R3-12-47-3_fuse_123;
current_limit 50000;
to R3-12-47-3_node_1701;
};

object fuse {
status CLOSED;
phases ACN;
from R3-12-47-3_node_1726;
name R3-12-47-3_fuse_124;
current_limit 50000;
to R3-12-47-3_node_1727;
};

object fuse {
status CLOSED;
phases ABCN;
from R3-12-47-3_node_1731;
name R3-12-47-3_fuse_125;
current_limit 50000;
to R3-12-47-3_node_1732;
};

object fuse {
status CLOSED;
phases CN;
from R3-12-47-3_node_1723;
name R3-12-47-3_fuse_126;
current_limit 50000;
to R3-12-47-3_node_1736;
};

object fuse {
status CLOSED;
phases ABN;
from R3-12-47-3_node_1748;
name R3-12-47-3_fuse_127;
current_limit 50000;
to R3-12-47-3_node_1759;
};

object fuse {
status CLOSED;
phases ABN;
from R3-12-47-3_node_1768;
name R3-12-47-3_fuse_128;
current_limit 50000;
to R3-12-47-3_node_1769;
};

object fuse {
status CLOSED;
phases AN;
from R3-12-47-3_node_1760;
name R3-12-47-3_fuse_129;
current_limit 50000;
to R3-12-47-3_node_1772;
};

object fuse {
status CLOSED;
phases ABCN;
from R3-12-47-3_node_1778;
name R3-12-47-3_fuse_130;
current_limit 50000;
to R3-12-47-3_node_1779;
};

object fuse {
status CLOSED;
phases ABCN;
from R3-12-47-3_node_1781;
name R3-12-47-3_fuse_131;
current_limit 50000;
to R3-12-47-3_node_1782;
};

object fuse {
status CLOSED;
phases ABCN;
from R3-12-47-3_node_1800;
name R3-12-47-3_fuse_132;
current_limit 50000;
to R3-12-47-3_node_1801;
};

object fuse {
status CLOSED;
phases ABN;
from R3-12-47-3_node_1822;
name R3-12-47-3_fuse_133;
current_limit 50000;
to R3-12-47-3_node_1823;
};

object fuse {
status CLOSED;
phases ACN;
from R3-12-47-3_node_1831;
name R3-12-47-3_fuse_134;
current_limit 50000;
to R3-12-47-3_node_1832;
};

object fuse {
status CLOSED;
phases ABCN;
from R3-12-47-3_node_1712;
name R3-12-47-3_fuse_135;
current_limit 50000;
to R3-12-47-3_node_1833;
};

object fuse {
status CLOSED;
phases ABCN;
from R3-12-47-3_node_1853;
name R3-12-47-3_fuse_136;
current_limit 50000;
to R3-12-47-3_node_1854;
};

object fuse {
status CLOSED;
phases BCN;
from R3-12-47-3_node_1872;
name R3-12-47-3_fuse_137;
current_limit 50000;
to R3-12-47-3_node_1873;
};

object fuse {
status CLOSED;
phases BCN;
from R3-12-47-3_node_1927;
name R3-12-47-3_fuse_138;
current_limit 50000;
to R3-12-47-3_node_1928;
};

object fuse {
status CLOSED;
phases BCN;
from R3-12-47-3_node_1930;
name R3-12-47-3_fuse_139;
current_limit 50000;
to R3-12-47-3_node_1931;
};

object fuse {
status CLOSED;
phases BCN;
from R3-12-47-3_node_1978;
name R3-12-47-3_fuse_140;
current_limit 50000;
to R3-12-47-3_node_1979;
};

object line_configuration {
name line_configuration_24;
spacing line_spacing_16;
conductor_N overhead_line_conductor_2;
conductor_A overhead_line_conductor_2;
conductor_C overhead_line_conductor_2;
conductor_B overhead_line_conductor_2;
};

object line_configuration {
name line_configuration_25;
spacing line_spacing_16;
conductor_N overhead_line_conductor_3;
conductor_A overhead_line_conductor_3;
conductor_C overhead_line_conductor_3;
conductor_B overhead_line_conductor_3;
};

object line_configuration {
name line_configuration_26;
spacing line_spacing_17;
conductor_N overhead_line_conductor_3;
conductor_A overhead_line_conductor_3;
conductor_C overhead_line_conductor_3;
};

object line_configuration {
name line_configuration_27;
spacing line_spacing_17;
conductor_N underground_line_conductor_4;
conductor_A underground_line_conductor_4;
conductor_C underground_line_conductor_4;
};

object line_configuration {
name line_configuration_28;
spacing line_spacing_18;
conductor_N overhead_line_conductor_3;
conductor_C overhead_line_conductor_3;
conductor_B overhead_line_conductor_3;
};

object line_configuration {
name line_configuration_29;
spacing line_spacing_16;
conductor_N underground_line_conductor_5;
conductor_A underground_line_conductor_5;
conductor_C underground_line_conductor_5;
conductor_B underground_line_conductor_5;
};

object line_configuration {
name line_configuration_30;
spacing line_spacing_16;
conductor_N underground_line_conductor_6;
conductor_A underground_line_conductor_6;
conductor_C underground_line_conductor_6;
conductor_B underground_line_conductor_6;
};

object line_configuration {
name line_configuration_31;
spacing line_spacing_18;
conductor_N underground_line_conductor_7;
conductor_C underground_line_conductor_7;
conductor_B underground_line_conductor_7;
};

object line_configuration {
name line_configuration_32;
spacing line_spacing_16;
conductor_N overhead_line_conductor_8;
conductor_A overhead_line_conductor_8;
conductor_C overhead_line_conductor_8;
conductor_B overhead_line_conductor_8;
};

object line_configuration {
name line_configuration_33;
spacing line_spacing_16;
conductor_N underground_line_conductor_7;
conductor_A underground_line_conductor_7;
conductor_C underground_line_conductor_7;
conductor_B underground_line_conductor_7;
};

object line_configuration {
name line_configuration_34;
spacing line_spacing_19;
conductor_N overhead_line_conductor_8;
conductor_A overhead_line_conductor_8;
conductor_B overhead_line_conductor_8;
};

object line_configuration {
name line_configuration_35;
spacing line_spacing_17;
conductor_N underground_line_conductor_9;
conductor_A underground_line_conductor_9;
conductor_C underground_line_conductor_9;
};

object line_configuration {
name line_configuration_36;
spacing line_spacing_17;
conductor_N overhead_line_conductor_8;
conductor_A overhead_line_conductor_8;
conductor_C overhead_line_conductor_8;
};

object line_configuration {
name line_configuration_37;
spacing line_spacing_17;
conductor_N overhead_line_conductor_10;
conductor_A overhead_line_conductor_10;
conductor_C overhead_line_conductor_10;
};

object line_configuration {
conductor_N underground_line_conductor_4;
spacing line_spacing_20;
name line_configuration_38;
conductor_C underground_line_conductor_4;
};

object line_configuration {
conductor_N underground_line_conductor_4;
spacing line_spacing_21;
name line_configuration_39;
conductor_B underground_line_conductor_4;
};

object line_configuration {
name line_configuration_40;
spacing line_spacing_19;
conductor_N overhead_line_conductor_3;
conductor_A overhead_line_conductor_3;
conductor_B overhead_line_conductor_3;
};

object line_configuration {
conductor_N underground_line_conductor_9;
spacing line_spacing_21;
name line_configuration_41;
conductor_B underground_line_conductor_9;
};

object line_configuration {
conductor_N underground_line_conductor_4;
spacing line_spacing_22;
conductor_A underground_line_conductor_4;
name line_configuration_42;
};

object line_configuration {
conductor_N underground_line_conductor_7;
spacing line_spacing_20;
name line_configuration_43;
conductor_C underground_line_conductor_7;
};

object line_configuration {
name line_configuration_44;
spacing line_spacing_18;
conductor_N overhead_line_conductor_8;
conductor_C overhead_line_conductor_8;
conductor_B overhead_line_conductor_8;
};

object line_configuration {
name line_configuration_45;
spacing line_spacing_16;
conductor_N overhead_line_conductor_11;
conductor_A overhead_line_conductor_11;
conductor_C overhead_line_conductor_11;
conductor_B overhead_line_conductor_11;
};

object line_configuration {
name line_configuration_46;
spacing line_spacing_16;
conductor_N underground_line_conductor_4;
conductor_A underground_line_conductor_4;
conductor_C underground_line_conductor_4;
conductor_B underground_line_conductor_4;
};

object line_configuration {
conductor_N underground_line_conductor_7;
spacing line_spacing_21;
name line_configuration_47;
conductor_B underground_line_conductor_7;
};

object line_configuration {
conductor_N underground_line_conductor_9;
spacing line_spacing_22;
conductor_A underground_line_conductor_9;
name line_configuration_48;
};

object line_configuration {
name line_configuration_49;
spacing line_spacing_18;
conductor_N overhead_line_conductor_10;
conductor_C overhead_line_conductor_10;
conductor_B overhead_line_conductor_10;
};

object line_configuration {
name line_configuration_50;
spacing line_spacing_18;
conductor_N underground_line_conductor_9;
conductor_C underground_line_conductor_9;
conductor_B underground_line_conductor_9;
};

object line_configuration {
conductor_N underground_line_conductor_9;
spacing line_spacing_20;
name line_configuration_51;
conductor_C underground_line_conductor_9;
};

object line_configuration {
name line_configuration_52;
spacing line_spacing_18;
conductor_N underground_line_conductor_4;
conductor_C underground_line_conductor_4;
conductor_B underground_line_conductor_4;
};

object line_configuration {
name line_configuration_53;
spacing line_spacing_19;
conductor_N underground_line_conductor_4;
conductor_A underground_line_conductor_4;
conductor_B underground_line_conductor_4;
};

object line_configuration {
name line_configuration_54;
spacing line_spacing_19;
conductor_N underground_line_conductor_9;
conductor_A underground_line_conductor_9;
conductor_B underground_line_conductor_9;
};

object line_configuration {
conductor_N overhead_line_conductor_8;
spacing line_spacing_21;
name line_configuration_55;
conductor_B overhead_line_conductor_8;
};

object line_configuration {
conductor_N overhead_line_conductor_3;
spacing line_spacing_20;
name line_configuration_56;
conductor_C overhead_line_conductor_3;
};

object line_configuration {
name line_configuration_57;
spacing line_spacing_16;
conductor_N overhead_line_conductor_12;
conductor_A overhead_line_conductor_12;
conductor_C overhead_line_conductor_12;
conductor_B overhead_line_conductor_12;
};

object line_configuration {
conductor_N underground_line_conductor_7;
spacing line_spacing_22;
conductor_A underground_line_conductor_7;
name line_configuration_58;
};

object line_configuration {
name line_configuration_59;
spacing line_spacing_19;
conductor_N overhead_line_conductor_10;
conductor_A overhead_line_conductor_10;
conductor_B overhead_line_conductor_10;
};

object line_configuration {
name line_configuration_60;
spacing line_spacing_16;
conductor_N underground_line_conductor_13;
conductor_A underground_line_conductor_13;
conductor_C underground_line_conductor_13;
conductor_B underground_line_conductor_13;
};

object line_configuration {
name line_configuration_61;
spacing line_spacing_23;
conductor_N underground_line_conductor_13;
conductor_A underground_line_conductor_13;
conductor_C underground_line_conductor_13;
conductor_B underground_line_conductor_13;
};

object line_configuration {
name line_configuration_62;
spacing line_spacing_16;
conductor_N underground_line_conductor_14;
conductor_A underground_line_conductor_14;
conductor_C underground_line_conductor_14;
conductor_B underground_line_conductor_14;
};

object line_configuration {
name line_configuration_63;
spacing line_spacing_17;
conductor_N underground_line_conductor_7;
conductor_A underground_line_conductor_7;
conductor_C underground_line_conductor_7;
};

object line_configuration {