new object=loadshape.NewDiesel_675_3_shape npts=8760 interval=1 useactual=no mult=[0.129415, 0.129415, 0.129415, 0.129415, 0.129415, 0.129415, 0.129415, 0.079015, 0.068935, -0.08093700000000001, -0.14187, -0.1157, -0.111985, -0.137415, -0.113512, 0.005608000000000002, 0.06541, 0.099174, 0.129415, 0.129415, 0.129415, 0.129415, 0.129415, 0.129415, 0.14762, 0.14762, 0.14762, 0.14762, 0.14762, 0.197942, 0.777339, 0.642798, 0.558379, 0.28059899999999993, 0.14607399999999993, 0.096993, 0.11495200000000005, 0.14664200000000005, 0.249025, 0.462984, 0.598809, 0.611601, 0.534686, 0.543581, 0.501972, 0.512561, 0.161909, 0.14762, 0.14762, 0.14762, 0.14762, 0.173919, 0.186358, 0.200786, 0.777897, 0.61577, 0.511429, 0.27335799999999993, 0.14134000000000002, 0.09314699999999998, 0.11131199999999997, 0.15352, 0.339836, 0.48562399999999994, 0.607334, 0.582978, 0.494908, 0.509539, 0.465805, 0.479477, 0.161909, 0.14762, 0.14762, 0.14762, 0.14762, 0.14762, 0.14762, 0.161909, 0.577892, 0.530298, 0.614064, 0.342872, 0.519483, 0.16485100000000003, 0.25799, 0.390698, 0.356062, 0.417365, 0.6017359999999999, 0.611451, 0.507969, 0.506029, 0.447807, 0.467889, 0.161909, 0.14762, 0.14762, 0.14762, 0.14762, 0.14762, 0.14762, 0.161909, 0.401015, 0.434488, 0.664278, 0.557326, 0.457534, 0.37712599999999996, 0.594113, 0.40627299999999994, 0.32264000000000004, 0.675184, 0.704541, 0.658769, 0.520613, 0.519969, 0.453119, 0.451646, 0.161909, 0.14762, 0.14762, 0.14762, 0.14762, 0.14762, 0.14762, 0.161909, 0.376173, 0.409072, 0.634703, 0.299205, 0.19171899999999997, 0.158416, 0.16044499999999995, 0.24622899999999992, 0.350607, 0.508007, 0.676008, 0.663981, 0.523106, 0.515528, 0.448504, 0.422294, 0.161909, 0.14762, 0.129415, 0.129415, 0.129415, 0.129415, 0.129415, 0.129415, 0.392061, 0.339531, 0.417127, 0.39299999999999996, 0.352444, 0.34593700000000005, 0.26917800000000003, 0.308449, 0.16196299999999997, 0.22593400000000002, 0.2667, 0.270279, 0.129415, 0.129415, 0.129415, 0.129415, 0.129415, 0.129415, 0.129415, 0.129415, 0.129415, 0.129415, 0.129415, 0.129415, 0.129415, 0.079015, 0.015973000000000015, -0.074829, 0.04944700000000002, -0.0003039999999999987, 0.0038539999999999963, 0.006215999999999999, 0.015373999999999999, 0.006485999999999992, 0.183537, 0.177244, 0.129415, 0.129415, 0.129415, 0.129415, 0.129415, 0.129415, 0.14762, 0.14762, 0.14762, 0.14762, 0.14762, 0.161909, 0.509308, 0.470115, 0.445203, 0.22926999999999997, 0.24288899999999997, 0.16630499999999998, 0.11756900000000003, 0.32631899999999997, 0.31210799999999994, 0.517692, 0.626519, 0.618239, 0.495812, 0.492926, 0.428128, 0.432057, 0.161909, 0.14762, 0.14762, 0.14762, 0.14762, 0.14762, 0.14762, 0.161909, 0.376191, 0.405684, 0.6426769999999999, 0.574891, 0.38831099999999996, 0.10088799999999998, 0.08746299999999996, 0.161385, 0.26735200000000003, 0.432596, 0.620042, 0.629367, 0.500686, 0.497592, 0.431075, 0.428594, 0.161909, 0.14762, 0.14762, 0.14762, 0.14762, 0.14762, 0.14762, 0.161909, 0.38807, 0.410671, 0.47043, 0.408839, 0.12145599999999995, 0.07360999999999995, 0.20631200000000005, 0.315019, 0.6050850000000001, 0.635277, 0.7024229999999999, 0.643127, 0.506422, 0.499289, 0.430833, 0.424554, 0.161909, 0.14762, 0.14762, 0.14762, 0.14762, 0.14762, 0.14762, 0.161909, 0.430554, 0.466464, 0.656863, 0.468595, 0.645965, 0.30454100000000006, 0.10374699999999992, 0.08644600000000002, 0.17720399999999997, 0.350193, 0.560739, 0.618333, 0.544626, 0.544939, 0.492275, 0.500176, 0.161909, 0.14762, 0.14762, 0.14762, 0.14762, 0.174601, 0.187291, 0.201261, 0.742671, 0.623608, 0.563589, 0.26218600000000003, 0.10416400000000003, 0.03408100000000003, 0.14785699999999996, 0.21430100000000002, 0.24777799999999994, 0.46218500000000007, 0.599328, 0.613907, 0.51974, 0.516527, 0.459218, 0.466613, 0.161909, 0.14762, 0.129415, 0.129415, 0.129415, 0.129415, 0.129415, 0.129415, 0.430445, 0.392474, 0.454755, 0.406013, 0.227937, 0.07378699999999999, 0.134988, 0.076604, 0.200584, 0.048200999999999994, 0.22686099999999998, 0.291351, 0.129415, 0.129415, 0.129415, 0.129415, 0.129415, 0.129415, 0.129415, 0.129415, 0.129415, 0.129415, 0.129415, 0.129415, 0.129415, 0.07269300000000001, -0.058709999999999984, -0.053744000000000014, 0.085839, 0.022968000000000016, 0.06594, 0.008439000000000002, 0.07217600000000002, 0.008560000000000012, 0.16121, 0.187027, 0.129415, 0.129415, 0.129415, 0.129415, 0.129415, 0.129415, 0.129415, 0.129415, 0.129415, 0.129415, 0.129415, 0.129415, 0.129415, 0.079015, 0.020275, -0.03656199999999998, 0.01547599999999999, 0.019984000000000002, 0.016522999999999982, 0.037129999999999996, 0.015709, 0.025067000000000006, 0.1563, 0.17811, 0.14041, 0.129415, 0.129415, 0.129415, 0.129415, 0.129415, 0.14762, 0.14762, 0.14762, 0.14762, 0.14762, 0.161909, 0.407108, 0.376086, 0.44796500000000006, 0.25737800000000005, 0.14993499999999993, 0.11857799999999996, 0.132479, 0.198365, 0.283291, 0.42581100000000005, 0.6081960000000001, 0.622255, 0.49493, 0.492927, 0.425126, 0.423303, 0.161909, 0.14762, 0.14762, 0.14762, 0.14762, 0.14762, 0.14762, 0.161909, 0.393638, 0.37080500000000005, 0.45467199999999997, 0.26754, 0.14678000000000002, 0.098468, 0.09949699999999995, 0.18710799999999994, 0.27567500000000006, 0.42958599999999997, 0.615501, 0.63422, 0.493331, 0.491312, 0.42658, 0.427104, 0.161909, 0.14762, 0.14762, 0.14762, 0.14762, 0.14762, 0.14762, 0.161909, 0.370046, 0.374665, 0.47206899999999996, 0.259517, 0.15092099999999997, 0.12602400000000002, 0.13245299999999993, 0.21529500000000001, 0.295946, 0.43912500000000004, 0.626224, 0.653245, 0.509756, 0.50562, 0.437784, 0.433875, 0.161909, 0.14762, 0.14762, 0.14762, 0.14762, 0.14762, 0.14762, 0.161909, 0.369587, 0.396203, 0.4744130000000001, 0.30548800000000004, 0.20252599999999998, 0.13541999999999998, 0.13033300000000003, 0.2077, 0.29206499999999996, 0.448968, 0.642637, 0.650084, 0.509341, 0.498012, 0.428146, 0.429006, 0.161909, 0.14762, 0.129415, 0.129415, 0.129415, 0.129415, 0.129415, 0.129415, 0.358905, 0.307329, 0.21187099999999998, 0.044084999999999985, -0.05358099999999999, -0.05528899999999998, -0.04438599999999998, -0.09315200000000001, 0.049601000000000006, 0.018282999999999994, 0.224759, 0.3004, 0.129415, 0.129415, 0.129415, 0.129415, 0.129415, 0.129415, 0.129415, 0.129415, 0.129415, 0.129415, 0.129415, 0.129415, 0.129415, 0.071655, 0.033454999999999985, -0.03845699999999999, 0.084043, 0.02468899999999999, 0.06371100000000002, 0.012467000000000006, 0.070158, 0.006729999999999986, 0.135697, 0.079015, 0.129415, 0.129415, 0.129415, 0.129415, 0.129415, 0.129415, 0.14762, 0.14762, 0.14762, 0.14762, 0.14762, 0.161909, 0.365572, 0.40031100000000003, 0.637587, 0.5233859999999999, 0.18934400000000007, 0.13388, 0.12088399999999999, 0.18773099999999998, 0.283768, 0.471936, 0.673254, 0.674439, 0.515412, 0.499371, 0.430162, 0.43086, 0.161909, 0.14762, 0.14762, 0.14762, 0.14762, 0.14762, 0.14762, 0.161909, 0.368986, 0.377799, 0.46871299999999994, 0.30562199999999995, 0.19206900000000005, 0.13637899999999992, 0.12240200000000001, 0.210086, 0.30214599999999997, 0.43605199999999994, 0.61909, 0.649546, 0.509219, 0.495163, 0.427473, 0.428566, 0.161909, 0.14762, 0.14762, 0.14762, 0.14762, 0.14762, 0.14762, 0.161909, 0.362355, 0.351721, 0.4805379999999999, 0.32688700000000004, 0.222186, 0.18151099999999998, 0.17748599999999992, 0.239807, 0.32227100000000003, 0.47793100000000005, 0.662987, 0.657294, 0.500717, 0.483992, 0.41295, 0.412961, 0.161909, 0.14762, 0.14762, 0.14762, 0.14762, 0.14762, 0.14762, 0.161909, 0.35258, 0.366325, 0.46666100000000005, 0.297942, 0.17756899999999998, 0.132247, 0.129656, 0.20464099999999996, 0.28878700000000007, 0.470982, 0.669999, 0.659896, 0.513068, 0.501574, 0.432211, 0.432439, 0.161909, 0.14762, 0.14762, 0.14762, 0.14762, 0.14762, 0.14762, 0.161909, 0.366484, 0.403938, 0.663562, 0.40725700000000004, 0.36575300000000005, 0.36018100000000003, 0.303148, 0.518132, 0.423324, 0.641053, 0.66757, 0.634775, 0.500156, 0.492712, 0.425524, 0.425576, 0.161909, 0.14762, 0.129415, 0.129415, 0.129415, 0.129415, 0.129415, 0.129415, 0.374047, 0.28791300000000003, 0.194419, -0.017093000000000025, -0.07338100000000003, -0.05849899999999997, -0.04769500000000004, -0.06600600000000001, 0.065187, 0.011439000000000032, 0.161653, 0.24071, 0.129415, 0.129415, 0.129415, 0.129415, 0.129415, 0.129415, 0.129415, 0.129415, 0.129415, 0.129415, 0.129415, 0.129415, 0.129415, 0.034655000000000005, -0.06103700000000001, -0.17291, -0.06201200000000001, -0.06706100000000001, -0.010304000000000008, -0.05313499999999999, -0.003961999999999993, -0.015073000000000003, 0.08693400000000001, 0.096883, 0.129415, 0.129415, 0.129415, 0.129415, 0.129415, 0.129415, 0.14762, 0.14762, 0.14762, 0.14762, 0.14762, 0.161909, 0.544921, 0.487366, 0.497401, 0.327798, 0.24317699999999998, 0.23852000000000007, 0.25477200000000005, 0.5462170000000001, 0.512923, 0.520394, 0.606407, 0.57247, 0.468047, 0.469066, 0.410019, 0.419103, 0.161909, 0.14762, 0.14762, 0.14762, 0.14762, 0.14762, 0.14762, 0.161909, 0.551018, 0.45537099999999997, 0.6026260000000001, 0.483324, 0.395559, 0.17165100000000005, 0.34618699999999997, 0.49325600000000003, 0.408474, 0.40400500000000006, 0.605878, 0.563322, 0.456946, 0.463894, 0.412296, 0.423678, 0.161909, 0.14762, 0.14762, 0.14762, 0.14762, 0.14762, 0.14762, 0.161909, 0.448668, 0.42410299999999995, 0.591297, 0.42889, 0.455871, 0.29033200000000003, 0.38803699999999997, 0.41008700000000003, 0.488426, 0.658738, 0.562753, 0.596958, 0.476, 0.476852, 0.41206, 0.413275, 0.161909, 0.14762, 0.14762, 0.14762, 0.14762, 0.14762, 0.14762, 0.161909, 0.4172, 0.348257, 0.37766500000000003, 0.16942099999999993, 0.0669590000000001, 0.02568400000000004, 0.02019800000000005, 0.08280399999999999, 0.15570099999999998, 0.31418399999999996, 0.527632, 0.600382, 0.502226, 0.498088, 0.430072, 0.431067, 0.161909, 0.14762, 0.14762, 0.14762, 0.14762, 0.14762, 0.14762, 0.161909, 0.376637, 0.35214700000000004, 0.436543, 0.222592, 0.10782499999999995, 0.07920099999999997, 0.09386300000000003, 0.14254999999999995, 0.230116, 0.511103, 0.6437440000000001, 0.620902, 0.495646, 0.491741, 0.428831, 0.428948, 0.161909, 0.14762, 0.129415, 0.129415, 0.129415, 0.129415, 0.129415, 0.129415, 0.406545, 0.357958, 0.384718, 0.32182, 0.130687, 0.02926200000000001, -0.03706699999999996, 0.12380200000000002, -0.005676999999999988, 0.022953, 0.203127, 0.267182, 0.129415, 0.129415, 0.129415, 0.129415, 0.129415, 0.129415, 0.129415, 0.129415, 0.129415, 0.129415, 0.129415, 0.129415, 0.129415, 0.008094999999999998, -0.171742, -0.142535, -0.10975499999999999, -0.11391200000000001, -0.10974500000000001, -0.13570000000000002, -0.11397299999999999, -0.13569, -0.016676999999999997, 0.068935, 0.129415, 0.129415, 0.129415, 0.129415, 0.129415, 0.129415, 0.14762, 0.14762, 0.14762, 0.14762, 0.14762, 0.161909, 0.390686, 0.337168, 0.3828790000000001, 0.16478199999999998, 0.025780999999999943, -0.02545900000000001, -0.030980000000000008, 0.010557000000000039, 0.11564299999999994, 0.27473100000000006, 0.49060400000000004, 0.575456, 0.487192, 0.486378, 0.419883, 0.41893, 0.161909, 0.14762, 0.14762, 0.14762, 0.14762, 0.14762, 0.14762, 0.161909, 0.368676, 0.372491, 0.5322769999999999, 0.215221, 0.094275, 0.05457400000000001, 0.16242100000000004, 0.12448300000000001, 0.302206, 0.415847, 0.663338, 0.648561, 0.516019, 0.503895, 0.435051, 0.431756, 0.161909, 0.14762, 0.14762, 0.14762, 0.14762, 0.14762, 0.14762, 0.161909, 0.36137, 0.35240699999999997, 0.388986, 0.166145, 0.02298800000000001, -0.03910100000000005, 0.02868599999999999, 0.09537400000000007, 0.13119500000000006, 0.34874200000000005, 0.535798, 0.593038, 0.459316, 0.454598, 0.393241, 0.399643, 0.161909, 0.14762, 0.14762, 0.14762, 0.14762, 0.14762, 0.14762, 0.161909, 0.46664, 0.38784399999999997, 0.576607, 0.503325, 0.49813399999999997, 0.40113299999999996, 0.339203, 0.34219200000000005, 0.478614, 0.457611, 0.582972, 0.557531, 0.457496, 0.462118, 0.409658, 0.422749, 0.161909, 0.14762, 0.14762, 0.14762, 0.14762, 0.14762, 0.14762, 0.161909, 0.540836, 0.443317, 0.525254, 0.482244, 0.399228, 0.117583, 0.012444999999999928, 0.07233900000000004, 0.14661400000000002, 0.36722299999999997, 0.494196, 0.534483, 0.47373, 0.483776, 0.437842, 0.445684, 0.161909, 0.14762, 0.129415, 0.129415, 0.129415, 0.129415, 0.129415, 0.129415, 0.516792, 0.33477599999999996, 0.268973, 0.199917, 0.24467199999999997, 0.23091899999999999, 0.18976800000000002, 0.007397000000000042, -0.08382600000000001, -0.04202600000000001, 0.210171, 0.293123, 0.129415, 0.129415, 0.129415, 0.129415, 0.129415, 0.129415, 0.129415, 0.129415, 0.129415, 0.129415, 0.129415, 0.129415, 0.129415, 0.011929999999999996, -0.086813, -0.069628, -0.04294200000000001, -0.063906, -0.020203, -0.023168000000000022, -0.010430999999999996, 0.005131999999999998, 0.0019979999999999998, 0.081691, 0.129415, 0.129415, 0.129415, 0.129415, 0.129415, 0.129415, 0.14762, 0.14762, 0.14762, 0.14762, 0.14762, 0.161909, 0.599573, 0.43435499999999994, 0.42755, 0.231267, 0.031565000000000065, 0.046812000000000076, 0.022760000000000002, 0.079963, 0.10108399999999995, 0.307157, 0.481992, 0.572282, 0.475858, 0.481297, 0.423326, 0.426843, 0.161909, 0.14762, 0.14762, 0.14762, 0.14762, 0.14762, 0.14762, 0.161909, 0.436639, 0.323941, 0.372285, 0.280776, 0.039713, -0.014752999999999905, 0.335407, 0.0496049999999999, 0.281175, 0.34740999999999994, 0.499815, 0.583485, 0.47428, 0.476615, 0.412785, 0.411427, 0.161909, 0.14762, 0.14762, 0.14762, 0.14762, 0.14762, 0.14762, 0.161909, 0.385473, 0.33396400000000004, 0.4804860000000001, 0.35686, 0.41395099999999996, 0.29443100000000005, 0.12822500000000003, 0.204525, 0.309366, 0.39096800000000004, 0.5843449999999999, 0.612198, 0.485504, 0.479761, 0.414939, 0.414486, 0.161909, 0.14762, 0.14762, 0.14762, 0.14762, 0.14762, 0.14762, 0.161909, 0.379149, 0.33776, 0.544396, 0.352802, 0.24091400000000002, 0.19815500000000003, 0.161918, 0.16180499999999998, 0.145509, 0.30741900000000005, 0.517474, 0.60074, 0.471909, 0.476219, 0.411583, 0.41301, 0.161909, 0.14762, 0.14762, 0.14762, 0.14762, 0.14762, 0.14762, 0.161909, 0.350937, 0.322892, 0.434318, 0.24276799999999998, 0.24530099999999994, 0.18511500000000003, 0.17130199999999995, 0.16032400000000002, 0.271951, 0.399026, 0.55098, 0.619833, 0.480745, 0.479762, 0.414642, 0.416395, 0.161909, 0.14762, 0.129415, 0.129415, 0.129415, 0.129415, 0.129415, 0.129415, 0.352013, 0.23221999999999998, 0.18798800000000002, 0.060923000000000005, -0.02788700000000005, -0.03158099999999997, -0.02497699999999997, -0.04422799999999999, 0.081127, 0.020033000000000023, 0.17629999999999998, 0.258209, 0.119335, 0.129415, 0.129415, 0.129415, 0.129415, 0.129415, 0.129415, 0.129415, 0.129415, 0.129415, 0.129415, 0.129415, 0.119335, 0.06765099999999999, -0.02341499999999999, -0.04643900000000001, 0.056145, 0.0010199999999999931, 0.039524000000000004, 0.032049999999999995, 0.01716799999999999, 0.152899, 0.08566100000000001, 0.11551700000000001, 0.119335, 0.129415, 0.129415, 0.129415, 0.129415, 0.129415, 0.129415, 0.129415, 0.129415, 0.129415, 0.129415, 0.129415, 0.119335, 0.023018999999999998, -0.048405000000000004, 0.005933999999999995, 0.004321000000000019, 0.044467000000000007, 0.017152, 0.02827099999999999, 0.019679000000000002, 0.027001999999999998, -0.012375999999999998, 0.082513, 0.119335, 0.129415, 0.129415, 0.129415, 0.129415, 0.129415, 0.14762, 0.14762, 0.14762, 0.14762, 0.14762, 0.161909, 0.350021, 0.28131799999999996, 0.37095199999999995, 0.163659, 0.06289699999999998, 0.014741999999999922, -0.004114000000000062, 0.07630999999999999, 0.17547100000000004, 0.45769300000000007, 0.5687760000000001, 0.648173, 0.521715, 0.513221, 0.434944, 0.435999, 0.161909, 0.14762, 0.14762, 0.14762, 0.14762, 0.14762, 0.14762, 0.161909, 0.355114, 0.28163299999999997, 0.39362500000000006, 0.21033900000000005, 0.09927299999999994, 0.05426300000000006, 0.03936800000000007, 0.11654399999999998, 0.21899400000000002, 0.45292, 0.5985860000000001, 0.665524, 0.51634, 0.50446, 0.425681, 0.425677, 0.161909, 0.14762, 0.14762, 0.14762, 0.14762, 0.14762, 0.14762, 0.161909, 0.354983, 0.361701, 0.652924, 0.62773, 0.614684, 0.08155899999999994, 0.06835100000000005, 0.13478099999999993, 0.200206, 0.35778600000000005, 0.560042, 0.638879, 0.516037, 0.511966, 0.437785, 0.434023, 0.161909, 0.14762, 0.14762, 0.14762, 0.14762, 0.14762, 0.14762, 0.161909, 0.358698, 0.332089, 0.47409999999999997, 0.314847, 0.18918899999999994, 0.07502799999999998, 0.06927799999999995, 0.13380400000000003, 0.25687799999999994, 0.439816, 0.62399, 0.679692, 0.52082, 0.507316, 0.429408, 0.426175, 0.161909, 0.14762, 0.129415, 0.129415, 0.129415, 0.129415, 0.129415, 0.129415, 0.351753, 0.248353, 0.226699, 0.07413399999999998, -3.500000000000725e-05, 0.40136599999999995, 0.42378599999999994, 0.434369, 0.214532, 0.17026999999999998, 0.20957200000000004, 0.23794300000000002, 0.119335, 0.129415, 0.129415, 0.129415, 0.129415, 0.129415, 0.129415, 0.129415, 0.129415, 0.129415, 0.129415, 0.129415, 0.119335, -0.063422, -0.14451199999999997, -0.120809, -0.065548, -0.05337799999999998, -0.017362000000000016, -0.01048300000000002, -0.010677999999999993, -0.0016420000000000046, -0.034786999999999985, 0.11830500000000001, 0.151008, 0.129415, 0.129415, 0.129415, 0.129415, 0.129415, 0.14762, 0.14762, 0.14762, 0.14762, 0.14762, 0.161909, 0.480599, 0.345232, 0.42043899999999995, 0.23797799999999997, 0.11432799999999999, 0.21758699999999997, 0.39249599999999996, 0.336889, 0.284666, 0.33810300000000004, 0.499664, 0.5740200000000001, 0.487992, 0.498739, 0.435125, 0.436194, 0.161909, 0.14762, 0.14762, 0.14762, 0.14762, 0.14762, 0.14762, 0.161909, 0.351176, 0.261574, 0.37075900000000006, 0.18167199999999994, 0.06353599999999993, 0.013276999999999983, 0.155536, 0.22348599999999996, 0.280307, 0.36074300000000004, 0.607673, 0.632093, 0.503021, 0.485875, 0.411344, 0.409167, 0.161909, 0.14762, 0.14762, 0.14762, 0.14762, 0.14762, 0.14762, 0.161909, 0.396264, 0.278553, 0.445816, 0.236491, 0.12325900000000001, -0.06379200000000007, 0.029608999999999996, -0.00026999999999999247, 0.134173, 0.2684329999999999, 0.47799, 0.5689329999999999, 0.459394, 0.458172, 0.395244, 0.394703, 0.161909, 0.14762, 0.14762, 0.14762, 0.14762, 0.14762, 0.14762, 0.161909, 0.400138, 0.374602, 0.647621, 0.621471, 0.581285, 0.549249, 0.43689500000000003, 0.500323, 0.531586, 0.526934, 0.543996, 0.56934, 0.462413, 0.470283, 0.407235, 0.405969, 0.161909, 0.14762, 0.14762, 0.14762, 0.14762, 0.14762, 0.14762, 0.161909, 0.324488, 0.20526000000000003, 0.28399599999999997, 0.08248, -0.04038700000000006, -0.07183300000000004, -0.07367099999999993, 0.010391000000000039, 0.11537700000000006, 0.275921, 0.482366, 0.59769, 0.5016, 0.499221, 0.431801, 0.432071, 0.161909, 0.14762, 0.129415, 0.129415, 0.129415, 0.129415, 0.129415, 0.129415, 0.344947, 0.166592, 0.07544800000000002, -0.09603100000000003, -0.040715999999999974, -0.049316000000000026, -0.05155500000000002, 0.23324300000000003, 0.005116999999999983, 0.029503, 0.09501000000000001, 0.228472, 0.109255, 0.129415, 0.129415, 0.129415, 0.129415, 0.129415, 0.129415, 0.129415, 0.129415, 0.129415, 0.129415, 0.129415, 0.109255, 0.0074719999999999995, -0.075653, -0.171075, 0.06232700000000002, 0.02843699999999999, 0.067217, 0.0024939999999999962, 0.06437700000000002, -0.015577000000000008, 0.053225999999999996, 0.139455, 0.129536, 0.129415, 0.129415, 0.129415, 0.129415, 0.129415, 0.14762, 0.14762, 0.14762, 0.14762, 0.14762, 0.161909, 0.352789, 0.216873, 0.298999, 0.28017699999999995, 0.02946700000000002, -0.0353699999999999, 0.21946300000000007, 0.01905799999999991, 0.12269300000000005, 0.299159, 0.521171, 0.599951, 0.48722, 0.497499, 0.430738, 0.428445, 0.161909, 0.14762, 0.14762, 0.14762, 0.14762, 0.14762, 0.14762, 0.161909, 0.340121, 0.30483, 0.28899, 0.07467299999999999, -0.046793000000000085, -0.09657300000000002, -0.09887100000000004, -0.015553999999999957, 0.09726900000000005, 0.25554299999999996, 0.464483, 0.575193, 0.478686, 0.488708, 0.42261, 0.420564, 0.161909, 0.14762, 0.14762, 0.14762, 0.14762, 0.14762, 0.14762, 0.161909, 0.328927, 0.24060199999999998, 0.39514399999999994, 0.24835000000000002, 0.086789, -0.027835999999999972, -0.03755900000000001, 0.09540599999999999, 0.21807699999999997, 0.348508, 0.594727, 0.604672, 0.475136, 0.481373, 0.413437, 0.411797, 0.161909, 0.14762, 0.14762, 0.14762, 0.14762, 0.14762, 0.14762, 0.161909, 0.328982, 0.21513000000000002, 0.41817999999999994, 0.15993099999999993, 0.056428000000000034, 0.013931000000000027, 0.007484000000000046, 0.09281099999999998, 0.179469, 0.34703300000000004, 0.54617, 0.635169, 0.514768, 0.516176, 0.441787, 0.442172, 0.161909, 0.14762, 0.14762, 0.14762, 0.14762, 0.14762, 0.14762, 0.161909, 0.343772, 0.25966, 0.331793, 0.13815599999999995, 0.08793300000000004, 0.025136000000000047, 0.02774999999999994, 0.06872599999999995, 0.06908999999999998, 0.226144, 0.42895, 0.522337, 0.437828, 0.457541, 0.393407, 0.395515, 0.161909, 0.14762, 0.129415, 0.129415, 0.129415, 0.129415, 0.129415, 0.129415, 0.39593500000000004, 0.11732899999999999, -0.01543899999999998, -0.175585, -0.12730999999999998, -0.10669499999999998, -0.129872, -0.106103, 0.007425999999999988, 0.007070999999999994, 0.025416000000000022, 0.17716200000000001, 0.109255, 0.129415, 0.129415, 0.129415, 0.129415, 0.129415, 0.129415, 0.129415, 0.129415, 0.129415, 0.129415, 0.129415, 0.086322, -0.07628900000000001, -0.08719500000000001, -0.06454299999999999, 0.04298199999999999, 0.024558000000000024, -0.009951000000000015, 0.029806, -0.0049869999999999914, -0.010476999999999986, 0.07837200000000001, 0.16814300000000001, 0.175055, 0.129415, 0.129415, 0.129415, 0.129415, 0.129415, 0.14762, 0.14762, 0.14762, 0.14762, 0.161909, 0.361766, 0.417062, 0.540261, 0.443836, 0.22778200000000004, 0.431884, 0.11791799999999997, 0.135328, 0.23033599999999999, 0.554519, 0.735823, 0.6882, 0.464306, 0.515583, 0.449407, 0.440946, 0.161909, 0.14762, 0.14762, 0.14762, 0.14762, 0.14762, 0.14762, 0.161909, 0.376824, 0.42656099999999997, 0.574255, 0.36235000000000006, 0.33913000000000004, 0.19706999999999997, 0.03944100000000006, 0.46647400000000006, 0.32325800000000005, 0.19685799999999998, 0.35135399999999994, 0.545529, 0.433595, 0.441651, 0.37452, 0.376774, 0.161909, 0.14762, 0.14762, 0.14762, 0.14762, 0.14762, 0.14762, 0.161909, 0.45112, 0.43857500000000005, 0.436412, 0.16424499999999997, -0.009021999999999974, -0.11145300000000002, -0.15466599999999997, -0.16257700000000008, -0.13239200000000007, 0.21580000000000005, 0.20830499999999996, 0.503716, 0.364241, 0.417623, 0.395521, 0.412413, 0.161909, 0.14762, 0.14762, 0.14762, 0.14762, 0.14762, 0.14762, 0.161909, 0.602221, 0.540199, 0.527595, 0.301357, 0.10561600000000004, -0.11984099999999998, -0.16780499999999998, 0.08505799999999997, 0.307879, 0.31432299999999996, 0.45754100000000003, 0.452781, 0.37922, 0.426205, 0.400605, 0.410583, 0.161909, 0.14762, 0.14762, 0.14762, 0.14762, 0.14762, 0.14762, 0.161909, 0.462869, 0.480962, 0.6323850000000001, 0.5470010000000001, 0.42559400000000003, 0.31225600000000003, 0.289909, 0.36312099999999997, 0.14846700000000007, 0.221872, 0.295285, 0.34837799999999997, 0.34173299999999995, 0.431377, 0.392998, 0.398919, 0.161909, 0.14762, 0.14762, 0.129415, 0.129415, 0.129415, 0.129415, 0.129415, 0.375656, 0.326105, 0.19412100000000002, -0.01949200000000001, -0.11350100000000007, -0.047130000000000005, -0.07608899999999996, -0.09820100000000004, 0.03150000000000003, 0.0015700000000000158, 0.0033059999999999756, -0.0007619999999999849, 0.0035349999999999965, 0.109255, 0.129415, 0.129415, 0.129415, 0.129415, 0.129415, 0.129415, 0.129415, 0.129415, 0.129415, 0.129415, 0.129415, 0.065696, -0.14696, -0.174513, -0.079433, -0.112545, -0.09212700000000001, -0.092417, -0.092108, -0.122138, -0.12705, -0.183235, 0.004674999999999999, 0.109255, 0.129415, 0.129415, 0.129415, 0.129415, 0.129415, 0.14762, 0.14762, 0.14762, 0.14762, 0.161909, 0.525795, 0.475486, 0.45334699999999994, 0.17974800000000002, -0.010832999999999982, -0.12812599999999996, -0.17949199999999998, -0.17409300000000005, -0.14526300000000003, -0.042054999999999954, 0.136739, 0.279559, 0.323476, 0.429553, 0.405237, 0.419689, 0.161909, 0.14762, 0.14762, 0.14762, 0.14762, 0.14762, 0.14762, 0.161909, 0.521721, 0.468731, 0.448426, 0.176493, -0.014638999999999958, -0.12089499999999997, -0.17802300000000004, -0.164308, -0.128498, -0.00783899999999993, 0.180321, 0.32831099999999996, 0.347458, 0.439865, 0.395688, 0.403864, 0.161909, 0.14762, 0.14762, 0.14762, 0.14762, 0.14762, 0.14762, 0.161909, 0.453766, 0.41883400000000004, 0.41746099999999997, 0.15944500000000006, -0.012716999999999978, -0.10148899999999994, -0.14316000000000006, -0.133189, -0.05036499999999999, 0.11836400000000002, 0.247656, 0.35018299999999997, 0.359029, 0.443695, 0.401315, 0.404683, 0.161909, 0.14762, 0.14762, 0.14762, 0.14762, 0.14762, 0.14762, 0.161909, 0.34877, 0.348123, 0.414296, 0.169948, 0.0045960000000000445, -0.075596, -0.1411190000000001, -0.118537, -0.06405499999999997, 0.04535599999999995, 0.22232800000000003, 0.34344099999999994, 0.355076, 0.458949, 0.406329, 0.410422, 0.161909, 0.14762, 0.14762, 0.14762, 0.14762, 0.14762, 0.14762, 0.161909, 0.352398, 0.39401, 0.47826, 0.50006, 0.305171, 0.088445, 0.05783499999999997, 0.07678400000000007, 0.11697800000000003, 0.169713, 0.274344, 0.39141, 0.37618399999999996, 0.471948, 0.416598, 0.417301, 0.161909, 0.14762, 0.14762, 0.129415, 0.129415, 0.129415, 0.129415, 0.129415, 0.356757, 0.284155, 0.180752, -0.005361000000000005, -0.09277899999999994, -0.015781999999999963, -0.07322900000000004, -0.08487699999999998, 0.028469999999999995, 0.015844999999999998, 0.03400200000000003, 0.00013900000000000023, 0.119814, 0.127175, 0.129415, 0.129415, 0.129415, 0.129415, 0.129415, 0.129415, 0.129415, 0.129415, 0.129415, 0.129415, 0.129415, 0.047841999999999996, -0.09657999999999997, -0.016033999999999993, 0.03636499999999998, 0.021119, 0.03792800000000002, 0.057975, -0.0007240000000000024, 0.03620999999999999, -0.051211000000000007, -0.115784, 0.01658699999999999, 0.099174, 0.129415, 0.129415, 0.129415, 0.129415, 0.129415, 0.14762, 0.14762, 0.14762, 0.14762, 0.161909, 0.368321, 0.397886, 0.6630940000000001, 0.6522490000000001, 0.6236229999999999, 0.685743, 0.632128, 0.546303, 0.339318, 0.3917820000000001, 0.522988, 0.5163749999999999, 0.42372, 0.492076, 0.430825, 0.42835, 0.161909, 0.14762, 0.14762, 0.14762, 0.14762, 0.14762, 0.14762, 0.161909, 0.360067, 0.33716999999999997, 0.664026, 0.601442, 0.545575, 0.46190400000000004, 0.18367, -0.00950899999999999, 0.04178400000000004, 0.15609399999999996, 0.33871200000000007, 0.557598, 0.427805, 0.480816, 0.422906, 0.420846, 0.161909, 0.14762, 0.14762, 0.14762, 0.14762, 0.14762, 0.14762, 0.161909, 0.348947, 0.346706, 0.425171, 0.204851, 0.06466000000000005, -0.025357000000000074, -0.07256999999999991, 0.06049799999999994, 0.39386299999999996, 0.19186000000000003, 0.32448800000000005, 0.465349, 0.39658400000000005, 0.477079, 0.420664, 0.417926, 0.161909, 0.14762, 0.14762, 0.14762, 0.14762, 0.14762, 0.14762, 0.161909, 0.352733, 0.385538, 0.656527, 0.571164, 0.415694, 0.08851999999999993, -0.06437399999999993, -0.038773999999999975, 0.006884000000000001, 0.11021899999999996, 0.29128299999999996, 0.413479, 0.38749, 0.469117, 0.414125, 0.411867, 0.161909, 0.14762, 0.14762, 0.14762, 0.14762, 0.14762, 0.14762, 0.161909, 0.34702, 0.361815, 0.610659, 0.5067159999999999, 0.35294400000000004, 0.34284000000000003, 0.04007900000000009, 0.275092, 0.609194, 0.19955, 0.31355299999999997, 0.44193399999999994, 0.356295, 0.45617, 0.403359, 0.402006, 0.161909, 0.14762, 0.14762, 0.129415, 0.129415, 0.129415, 0.129415, 0.129415, 0.351904, 0.237435, 0.13908900000000002, -0.05210600000000004, -0.016710000000000003, 0.007211999999999996, -0.007317000000000018, -0.05242999999999998, 0.07915, 0.05784999999999996, 0.07542399999999999, 0.085901, 0.134359, 0.235261, 0.129415, 0.129415, 0.129415, 0.129415, 0.129415, 0.129415, 0.129415, 0.129415, 0.129415, 0.129415, 0.129415, 0.0033520000000000078, -0.077869, -0.015212000000000003, 0.08574800000000002, 0.05685799999999999, 0.077627, 0.06985, 0.057212999999999986, 0.073624, 0.014573000000000003, 0.0024990000000000012, 0.14107, 0.227098, 0.199564, 0.154874, 0.129415, 0.129415, 0.129415, 0.188904, 0.14762, 0.14762, 0.14762, 0.198587, 0.356184, 0.31234700000000004, 0.42555299999999996, 0.23613, 0.126367, 0.071658, 0.020480000000000054, 0.06409299999999996, 0.12438700000000003, 0.22628499999999996, 0.376961, 0.477803, 0.453327, 0.535231, 0.464339, 0.455059, 0.161909, 0.177129, 0.160872, 0.14762, 0.14762, 0.189059, 0.14762, 0.200021, 0.369847, 0.33748900000000004, 0.46749, 0.27004199999999995, 0.148513, 0.10018100000000008, 0.06926999999999994, 0.09217699999999995, 0.14388899999999993, 0.22941, 0.39327300000000004, 0.524953, 0.47555100000000006, 0.537168, 0.46232, 0.453638, 0.161909, 0.14762, 0.177271, 0.160941, 0.14762, 0.14762, 0.223789, 0.161909, 0.375221, 0.332052, 0.462366, 0.258691, 0.11465100000000006, 0.04762500000000003, 0.06369499999999995, 0.14146199999999998, 0.513748, 0.187844, 0.5788200000000001, 0.49262999999999996, 0.391938, 0.495684, 0.437958, 0.436189, 0.161909, 0.14762, 0.14762, 0.14762, 0.14762, 0.14762, 0.14762, 0.161909, 0.342985, 0.269412, 0.318819, 0.07928899999999994, -0.07466099999999998, -0.15807499999999997, -0.20511900000000005, -0.17696499999999993, -0.11746599999999996, -0.002326999999999968, 0.17652199999999996, 0.33607, 0.315184, 0.412737, 0.373772, 0.37606, 0.161909, 0.14762, 0.14762, 0.14762, 0.14762, 0.14762, 0.14762, 0.161909, 0.403709, 0.308374, 0.334048, 0.10417799999999994, -0.03629300000000002, -0.10683500000000001, -0.14898900000000004, -0.13168800000000003, -0.08375900000000003, 0.014857000000000009, 0.17695400000000006, 0.30613999999999997, 0.318917, 0.429398, 0.390497, 0.395528, 0.161909, 0.14762, 0.14762, 0.129415, 0.129415, 0.129415, 0.129415, 0.129415, 0.348453, 0.20123199999999997, 0.145206, 0.013795000000000002, -0.06656699999999999, -0.092138, -0.10809799999999997, -0.14495000000000002, -0.016214