clock {
	timezone PST+8PDT;
	starttime '2000-01-01 00:00:00';
	stoptime '2000-01-01 00:00:00';
};

#set minimum_timestep=60;
#set profiler=1;
#set relax_naming_rules=1;
module generators;
module tape;
module residential {
	implicit_enduses NONE;
};

module powerflow {
	solver_method NR;
	NR_iteration_limit 50;
};

object node {
	phases ABCN;
	name BURLINGTON;
	bustype SWING;
	longitude 0;
	nominal_voltage 7200.0;
	latitude 0;
};

object overhead_line {
	phases ACB;
	from BURLINGTON;
	name 21003;
	longitude 0;
	to node2101121003;
	length 20.6237;
	latitude 0;
	configuration 20531-LINECONFIG;
};

object overhead_line {
	phases ACB;
	from node2101121003;
	name 21011;
	longitude 0;
	to node6830421011;
	length 13.0755;
	latitude 0;
	configuration 20531-LINECONFIG;
};

object overhead_line {
	phases ACB;
	from node6830421011;
	name 68304;
	longitude 0;
	to node6830568304;
	length 14.8233;
	latitude 0;
	configuration 20531-LINECONFIG;
};

object overhead_line {
	phases ACB;
	from node6830421011;
	name 68302;
	longitude 0;
	to node6830368302;
	length 10;
	latitude 0;
	configuration 20531-LINECONFIG;
};

object overhead_line {
	phases ACB;
	from node6830421011;
	name 68300;
	longitude 0;
	to node6830168300;
	length 10;
	latitude 0;
	configuration 20531-LINECONFIG;
};

object overhead_line {
	phases ACB;
	from node6830421011;
	name 68298;
	longitude 0;
	to node6829968298;
	length 19.0913;
	latitude 0;
	configuration 20531-LINECONFIG;
};

object overhead_line {
	phases ACB;
	from node6829968298;
	name 68299;
	longitude 0;
	to nodeR118268299;
	length 24.3563;
	latitude 0;
	configuration 20531-LINECONFIG;
};

object fuse {
	phases ACB;
	from nodeR118268299;
	name R1182;
	current_limit 9999.0 A;
	longitude 0;
	to node20944R1182;
	latitude 0;
};

object overhead_line {
	phases ACB;
	from node20944R1182;
	name 20944;
	to node2083720944;
	longitude 0;
	length 82.2659;
	latitude 0;
	configuration 20531-LINECONFIG;
};

object overhead_line {
	phases ACB;
	from node2083720944;
	name 20837;
	longitude 0;
	to node2088120837;
	length 87.5465;
	latitude 0;
	configuration 20531-LINECONFIG;
};

object overhead_line {
	phases ACB;
	from node2088120837;
	name 20881;
	longitude 0;
	to node2044520881;
	length 281.156;
	latitude 0;
	configuration 20531-LINECONFIG;
};

object overhead_line {
	phases ACB;
	from node2044520881;
	name 20445;
	longitude 0;
	to node2054920445;
	length 465.786;
	latitude 0;
	configuration 20531-LINECONFIG;
};

object overhead_line {
	phases ACB;
	from node2054920445;
	name 20549;
	longitude 0;
	to node2036920549;
	length 212.612;
	latitude 0;
	configuration 20531-LINECONFIG;
};

object overhead_line {
	phases ACB;
	from node2036920549;
	name 20369;
	longitude 0;
	to node2050620369;
	length 302.735;
	latitude 0;
	configuration 20531-LINECONFIG;
};

object overhead_line {
	phases ACB;
	from node2050620369;
	name 20506;
	longitude 0;
	to node2036720506;
	length 178.526;
	latitude 0;
	configuration 20531-LINECONFIG;
};

object overhead_line {
	phases ACB;
	from node2036720506;
	name 20367;
	longitude 0;
	to nodeT6246302788020367;
	length 144.103;
	latitude 0;
	configuration 20531-LINECONFIG;
};

object overhead_line {
	phases ACB;
	from nodeT6246302788020367;
	name 20286;
	longitude 0;
	to node2024820286;
	length 266.66;
	latitude 0;
	configuration 20531-LINECONFIG;
};

object overhead_line {
	phases ACB;
	from node2024820286;
	name 20248;
	longitude 0;
	to node2014520248;
	length 153.517;
	latitude 0;
	configuration 20531-LINECONFIG;
};

object overhead_line {
	phases ACB;
	from node2014520248;
	name 20145;
	longitude 0;
	to nodeT6246302460920145;
	length 357.003;
	latitude 0;
	configuration 20531-LINECONFIG;
};

object overhead_line {
	phases A;
	from nodeT6246302460920145;
	name 20129;
	longitude 0;
	to nodeF894420129;
	length 27.7071;
	latitude 0;
	configuration 18949-LINECONFIG;
};

object fuse {
	phases A;
	from nodeF894420129;
	name F8944;
	current_limit 9999.0 A;
	longitude 0;
	to node20130F8944;
	latitude 0;
};

object overhead_line {
	phases A;
	from node20130F8944;
	name 20130;
	to nodeT6246302377520130;
	longitude 0;
	length 103.665;
	latitude 0;
	configuration 18949-LINECONFIG;
};

object overhead_line {
	phases ACB;
	from nodeT6246302460920145;
	name 20050;
	longitude 0;
	to nodeT6246302267620050;
	length 287.2;
	latitude 0;
	configuration 20531-LINECONFIG;
};

object overhead_line {
	phases ACB;
	from nodeT6246302267620050;
	name 19663;
	longitude 0;
	to nodeT6246302166319663;
	length 211.226;
	latitude 0;
	configuration 20531-LINECONFIG;
};

object overhead_line {
	phases ACB;
	from nodeT6246302166319663;
	name 19935;
	longitude 0;
	to nodeT6246302067019935;
	length 194.654;
	latitude 0;
	configuration 20531-LINECONFIG;
};

object overhead_line {
	phases ACB;
	from nodeT6246302067019935;
	name 19597;
	longitude 0;
	to node1985219597;
	length 222.044;
	latitude 0;
	configuration 20531-LINECONFIG;
};

object overhead_line {
	phases ACB;
	from node1985219597;
	name 19852;
	longitude 0;
	to nodeT6246301941419852;
	length 273.49;
	latitude 0;
	configuration 20531-LINECONFIG;
};

object overhead_line {
	phases C;
	from nodeT6246301941419852;
	name 19850;
	longitude 0;
	to nodeF757319850;
	length 26.5061;
	latitude 0;
	configuration 16781-LINECONFIG;
};

object fuse {
	phases C;
	from nodeF757319850;
	name F7573;
	current_limit 9999.0 A;
	longitude 0;
	to node19851F7573;
	latitude 0;
};

object overhead_line {
	phases C;
	from node19851F7573;
	name 19851;
	longitude 0;
	to nodeT6246301946719851;
	length 80.8867;
	latitude 0;
	configuration 16781-LINECONFIG;
};

object overhead_line {
	phases C;
	from nodeT6246301941419852;
	name 19848;
	longitude 0;
	to nodeF794419848;
	length 28.1181;
	latitude 0;
	configuration 16781-LINECONFIG;
};

object fuse {
	phases C;
	from nodeF794419848;
	name F7944;
	current_limit 9999.0 A;
	longitude 0;
	to node19849F7944;
	latitude 0;
};

object overhead_line {
	phases C;
	from node19849F7944;
	name 19849;
	to node1959219849;
	longitude 0;
	length 241.85;
	latitude 0;
	configuration 16781-LINECONFIG;
};

object overhead_line {
	phases C;
	from node1959219849;
	name 19592;
	longitude 0;
	to node1996419592;
	length 320.096;
	latitude 0;
	configuration 16781-LINECONFIG;
};

object overhead_line {
	phases C;
	from node1996419592;
	name 19964;
	longitude 0;
	to nodeT6246302228919964;
	length 319.967;
	latitude 0;
	configuration 16781-LINECONFIG;
};

object overhead_line {
	phases C;
	from nodeT6246302228919964;
	name 20061;
	longitude 0;
	to node2013220061;
	length 203.088;
	latitude 0;
	configuration 16781-LINECONFIG;
};

object overhead_line {
	phases C;
	from node2013220061;
	name 20132;
	longitude 0;
	to nodeT6246302425720132;
	length 158.947;
	latitude 0;
	configuration 16781-LINECONFIG;
};

object overhead_line {
	phases A;
	from nodeT6246301941419852;
	name 19837;
	longitude 0;
	to nodeF758219837;
	length 24.9997;
	latitude 0;
	configuration 18949-LINECONFIG;
};

object fuse {
	phases A;
	from nodeF758219837;
	name F7582;
	current_limit 9999.0 A;
	longitude 0;
	to node19770F7582;
	latitude 0;
};

object overhead_line {
	phases A;
	from node19770F7582;
	name 19770;
	longitude 0;
	to nodeT6246301747919770;
	length 260.872;
	latitude 0;
	configuration 18949-LINECONFIG;
};

object overhead_line {
	phases A;
	from nodeT6246301747919770;
	name 19750;
	longitude 0;
	to nodeT6246301745119750;
	length 174.815;
	latitude 0;
	configuration 18949-LINECONFIG;
};

object overhead_line {
	phases A;
	from nodeT6246301747919770;
	name 19583;
	longitude 0;
	to nodeT6246301555719583;
	length 467.84;
	latitude 0;
	configuration 18949-LINECONFIG;
};

object overhead_line {
	phases A;
	from nodeT6246301555719583;
	name 19342;
	longitude 0;
	to nodeT6246301357619342;
	length 372.94;
	latitude 0;
	configuration 18949-LINECONFIG;
};

object overhead_line {
	phases A;
	from nodeT6246301357619342;
	name 19399;
	longitude 0;
	to nodeT6246301254019399;
	length 288.845;
	latitude 0;
	configuration 18949-LINECONFIG;
};

object overhead_line {
	phases A;
	from nodeT6246301555719583;
	name 19584;
	longitude 0;
	to node1948319584;
	length 235.1;
	latitude 0;
	configuration 18949-LINECONFIG;
};

object overhead_line {
	phases A;
	from node1948319584;
	name 19483;
	longitude 0;
	to nodeT6246301473419483;
	length 316.703;
	latitude 0;
	configuration 18949-LINECONFIG;
};

object overhead_line {
	phases A;
	from nodeT6246301473419483;
	name 19474;
	longitude 0;
	to nodeT6246301373719474;
	length 201.012;
	latitude 0;
	configuration 18949-LINECONFIG;
};

object overhead_line {
	phases A;
	from node1948319584;
	name 18573;
	longitude 0;
	to nodeT6246301683718573;
	length 383.447;
	latitude 0;
	configuration 18949-LINECONFIG;
};

object overhead_line {
	phases A;
	from nodeT6246301683718573;
	name 19688;
	longitude 0;
	to nodeT6247419602319688;
	length 321.462;
	latitude 0;
	configuration 18949-LINECONFIG;
};

object overhead_line {
	phases A;
	from nodeT6247419602319688;
	name 19558;
	longitude 0;
	to nodeT6247419610319558;
	length 211.036;
	latitude 0;
	configuration 18949-LINECONFIG;
};

object overhead_line {
	phases A;
	from nodeT6247419610319558;
	name 19560;
	longitude 0;
	to nodeT6247419621319560;
	length 202.261;
	latitude 0;
	configuration 18949-LINECONFIG;
};

object overhead_line {
	phases A;
	from nodeT6247419621319560;
	name 19683;
	longitude 0;
	to nodeT6247419635319683;
	length 217.697;
	latitude 0;
	configuration 18949-LINECONFIG;
};

object overhead_line {
	phases A;
	from nodeT6247419621319560;
	name 19682;
	longitude 0;
	to nodeT6247419721519682;
	length 198.705;
	latitude 0;
	configuration 18949-LINECONFIG;
};

object overhead_line {
	phases A;
	from nodeT6247419610319558;
	name 19559;
	longitude 0;
	to nodeT6247419710519559;
	length 202.235;
	latitude 0;
	configuration 18949-LINECONFIG;
};

object overhead_line {
	phases A;
	from node1948319584;
	name 18572;
	longitude 0;
	to nodeT6246301663418572;
	length 141.214;
	latitude 0;
	configuration 18949-LINECONFIG;
};

object overhead_line {
	phases ACB;
	from nodeT6246301941419852;
	name 19815;
	longitude 0;
	to nodeT6246301824919815;
	length 335.444;
	latitude 0;
	configuration 20531-LINECONFIG;
};

object overhead_line {
	phases C;
	from nodeT6246301824919815;
	name 19816;
	longitude 0;
	to nodeF581519816;
	length 26.6007;
	latitude 0;
	configuration 16781-LINECONFIG;
};

object fuse {
	phases C;
	from nodeF581519816;
	name F5815;
	current_limit 9999.0 A;
	longitude 0;
	to node19563F5815;
	latitude 0;
};

object overhead_line {
	phases C;
	from node19563F5815;
	name 19563;
	longitude 0;
	to nodeT6246301925319563;
	length 243.066;
	latitude 0;
	configuration 16781-LINECONFIG;
};

object overhead_line {
	phases C;
	from nodeT6246301925319563;
	name 19237;
	longitude 0;
	to nodeT6246302120019237;
	length 305.297;
	latitude 0;
	configuration 16781-LINECONFIG;
};

object overhead_line {
	phases ACB;
	from nodeT6246301824919815;
	name 19765;
	longitude 0;
	to node1974819765;
	length 386.822;
	latitude 0;
	configuration 20531-LINECONFIG;
};

object overhead_line {
	phases ACB;
	from node1974819765;
	name 19748;
	longitude 0;
	to nodeT6246301704519748;
	length 137.975;
	latitude 0;
	configuration 20531-LINECONFIG;
};

object overhead_line {
	phases A;
	from nodeT6246301704519748;
	name 19740;
	longitude 0;
	to nodeF758519740;
	length 25.0001;
	latitude 0;
	configuration 18949-LINECONFIG;
};

object fuse {
	phases A;
	from nodeF758519740;
	name F7585;
	current_limit 9999.0 A;
	longitude 0;
	to node19714F7585;
	latitude 0;
};

object overhead_line {
	phases A;
	from node19714F7585;
	name 19714;
	to nodeT6246301607719714;
	longitude 0;
	length 118.283;
	latitude 0;
	configuration 18949-LINECONFIG;
};

object overhead_line {
	phases A;
	from nodeT6246301607719714;
	name 18588;
	longitude 0;
	to node1950718588;
	length 218.301;
	latitude 0;
	configuration 18949-LINECONFIG;
};

object overhead_line {
	phases A;
	from node1950718588;
	name 19507;
	longitude 0;
	to nodeT6246301405019507;
	length 286.217;
	latitude 0;
	configuration 18949-LINECONFIG;
};

object overhead_line {
	phases A;
	from nodeT6246301704519748;
	name 19561;
	longitude 0;
	to nodeT6246301620119561;
	length 428.982;
	latitude 0;
	configuration 19519-LINECONFIG;
};

object overhead_line {
	phases ACB;
	from nodeT6246301704519748;
	name 19731;
	longitude 0;
	to node5801719731;
	length 155.789;
	latitude 0;
	configuration 20531-LINECONFIG;
};

object underground_line {
	phases ACB;
	from node5801719731;
	name 58017;
	longitude 0;
	to nodeF758658017;
	length 24.9999;
	latitude 0;
	configuration 57825-LINECONFIG;
};

object fuse {
	phases ACB;
	from nodeF758658017;
	name F7586;
	current_limit 9999.0 A;
	longitude 0;
	to node58021F7586;
	latitude 0;
};

object underground_line {
	phases ACB;
	from node58021F7586;
	name 58021;
	longitude 0;
	to nodeT6246307892258021;
	length 201.626;
	latitude 0;
	configuration 57825-LINECONFIG;
};

object overhead_line {
	phases ACB;
	from node5801719731;
	name 19589;
	longitude 0;
	to nodeT6246307689919589;
	length 172.639;
	latitude 0;
	configuration 20531-LINECONFIG;
};

object overhead_line {
	phases ACB;
	from nodeT6246307689919589;
	name 19538;
	longitude 0;
	to nodeT6246307566519538;
	length 561.815;
	latitude 0;
	configuration 20531-LINECONFIG;
};

object overhead_line {
	phases A;
	from nodeT6246307566519538;
	name 19582;
	to nodeF758719582;
	longitude 0;
	length 22.8798;
	latitude 0;
	configuration 19519-LINECONFIG;
};

object fuse {
	phases A;
	from nodeF758719582;
	name F7587;
	current_limit 9999.0 A;
	longitude 0;
	to node19196F7587;
	latitude 0;
};

object overhead_line {
	phases A;
	from node19196F7587;
	name 19196;
	longitude 0;
	to node1951919196;
	length 64.7094;
	latitude 0;
	configuration 19519-LINECONFIG;
};

object line_configuration {
	name 19519-LINECONFIG;
	spacing 16781-LINESPACING;
	conductor_A 16564_conductor_B;
};

object overhead_line {
	phases A;
	from node1951919196;
	name 19519;
	longitude 0;
	to nodeT6246307477519519;
	length 186.866;
	latitude 0;
	configuration 19519-LINECONFIG;
};

object overhead_line {
	phases ACB;
	from nodeT6246307566519538;
	name 19186;
	longitude 0;
	to node1950119186;
	length 169.689;
	latitude 0;
	configuration 20531-LINECONFIG;
};

object overhead_line {
	phases ACB;
	from node1950119186;
	name 19501;
	to node1934519501;
	longitude 0;
	length 293.041;
	latitude 0;
	configuration 20531-LINECONFIG;
};

object overhead_line {
	phases ACB;
	from node1934519501;
	name 19345;
	longitude 0;
	to node1934419345;
	length 421.542;
	latitude 0;
	configuration 20531-LINECONFIG;
};

object overhead_line {
	phases C;
	from node1934419345;
	name 19344;
	longitude 0;
	to nodeF758919344;
	length 25;
	latitude 0;
	configuration 16781-LINECONFIG;
};

object fuse {
	phases C;
	from nodeF758919344;
	name F7589;
	current_limit 9999.0 A;
	longitude 0;
	to node19353F7589;
	latitude 0;
};

object overhead_line {
	phases C;
	from node19353F7589;
	name 19353;
	longitude 0;
	to nodeT6246307416519353;
	length 235.932;
	latitude 0;
	configuration 16781-LINECONFIG;
};

object overhead_line {
	phases C;
	from nodeT6246307416519353;
	name 19512;
	longitude 0;
	to nodeT6246307416119512;
	length 78.2066;
	latitude 0;
	configuration 16781-LINECONFIG;
};

object overhead_line {
	phases C;
	from nodeT6246307416119512;
	name 19511;
	longitude 0;
	to node1920219511;
	length 187.008;
	latitude 0;
	configuration 16781-LINECONFIG;
};

object overhead_line {
	phases C;
	from node1920219511;
	name 19202;
	longitude 0;
	to node1970519202;
	length 268.521;
	latitude 0;
	configuration 16781-LINECONFIG;
};

object overhead_line {
	phases C;
	from node1970519202;
	name 19705;
	longitude 0;
	to node1973319705;
	length 144.519;
	latitude 0;
	configuration 16781-LINECONFIG;
};

object overhead_line {
	phases C;
	from node1973319705;
	name 19733;
	longitude 0;
	to node1979319733;
	length 159.822;
	latitude 0;
	configuration 16781-LINECONFIG;
};

object overhead_line {
	phases C;
	from node1979319733;
	name 19793;
	longitude 0;
	to node1957319793;
	length 192.016;
	latitude 0;
	configuration 16781-LINECONFIG;
};

object overhead_line {
	phases C;
	from node1957319793;
	name 19573;
	to nodeT6246307912719573;
	longitude 0;
	length 242.98;
	latitude 0;
	configuration 16781-LINECONFIG;
};

object overhead_line {
	phases C;
	from node1979319733;
	name 19792;
	longitude 0;
	to nodeT6246313995019792;
	length 336;
	latitude 0;
	configuration 16781-LINECONFIG;
};

object overhead_line {
	phases C;
	from node1920219511;
	name 19198;
	longitude 0;
	to nodeT6246307513319198;
	length 115.812;
	latitude 0;
	configuration 16781-LINECONFIG;
};

object overhead_line {
	phases ACB;
	from node1934419345;
	name 19384;
	longitude 0;
	to nodeT6246307203119384;
	length 546.446;
	latitude 0;
	configuration 20531-LINECONFIG;
};

object overhead_line {
	phases ACB;
	from nodeT6246307203119384;
	name 70924;
	longitude 0;
	to node7092570924;
	length 131.068;
	latitude 0;
	configuration 20531-LINECONFIG;
};

object overhead_line {
	phases ACB;
	from node7092570924;
	name 70925;
	longitude 0;
	to nodeSW1250-Bx170925;
	length 222.516;
	latitude 0;
	configuration 20531-LINECONFIG;
};

object switch {
	status CLOSED;
	phases ACB;
	from nodeSW1250-Bx170925;
	name SW1250-Bx1;
	longitude 0;
	to nodeSW1250-Ax1SW1250-Bx1;
	latitude 0;
};

object switch {
	status CLOSED;
	phases ACB;
	from nodeSW1250-Ax1SW1250-Bx1;
	name SW1250-Ax1;
	longitude 0;
	to node19281SW1250-Ax1;
	latitude 0;
};

object overhead_line {
	phases ACB;
	from node19281SW1250-Ax1;
	name 19281;
	to node1908919281;
	longitude 0;
	length 25.0002;
	latitude 0;
	configuration 20531-LINECONFIG;
};

object overhead_line {
	phases ACB;
	from node1908919281;
	name 19089;
	longitude 0;
	to nodeT6246313079419089;
	length 226.378;
	latitude 0;
	configuration 20531-LINECONFIG;
};

object overhead_line {
	phases ACB;
	from nodeT6246313079419089;
	name 19165;
	longitude 0;
	to node1900919165;
	length 222.764;
	latitude 0;
	configuration 20531-LINECONFIG;
};

object overhead_line {
	phases ACB;
	from node1900919165;
	name 19009;
	longitude 0;
	to node1875419009;
	length 489.892;
	latitude 0;
	configuration 20531-LINECONFIG;
};

object overhead_line {
	phases ACB;
	from node1875419009;
	name 18754;
	longitude 0;
	to node1875318754;
	length 558.193;
	latitude 0;
	configuration 20531-LINECONFIG;
};

object overhead_line {
	phases ACB;
	from node1875318754;
	name 18753;
	longitude 0;
	to node1875218753;
	length 76.3128;
	latitude 0;
	configuration 20531-LINECONFIG;
};

object overhead_line {
	phases ACB;
	from node1875218753;
	name 18752;
	to nodeT6246312914618752;
	longitude 0;
	length 329.719;
	latitude 0;
	configuration 20531-LINECONFIG;
};

object overhead_line {
	phases ACB;
	from nodeT6246312914618752;
	name 19041;
	longitude 0;
	to node1909519041;
	length 311.671;
	latitude 0;
	configuration 20531-LINECONFIG;
};

object overhead_line {
	phases A;
	from node1909519041;
	name 19095;
	longitude 0;
	to nodeF824519095;
	length 29.6986;
	latitude 0;
	configuration 18949-LINECONFIG;
};

object fuse {
	phases A;
	from nodeF824519095;
	name F8245;
	current_limit 9999.0 A;
	longitude 0;
	to node19103F8245;
	latitude 0;
};

object overhead_line {
	phases A;
	from node19103F8245;
	name 19103;
	to nodeT6246313125019103;
	longitude 0;
	length 99.3975;
	latitude 0;
	configuration 18949-LINECONFIG;
};

object overhead_line {
	phases A;
	from nodeT6246313125019103;
	name 19284;
	longitude 0;
	to node1929719284;
	length 278.816;
	latitude 0;
	configuration 18949-LINECONFIG;
};

object overhead_line {
	phases A;
	from node1929719284;
	name 19297;
	longitude 0;
	to node1932919297;
	length 354.071;
	latitude 0;
	configuration 18949-LINECONFIG;
};

object overhead_line {
	phases A;
	from node1932919297;
	name 19329;
	longitude 0;
	to node1934019329;
	length 348.862;
	latitude 0;
	configuration 18949-LINECONFIG;
};

object overhead_line {
	phases A;
	from node1934019329;
	name 19340;
	longitude 0;
	to node1938619340;
	length 238.633;
	latitude 0;
	configuration 18949-LINECONFIG;
};

object overhead_line {
	phases A;
	from node1938619340;
	name 19386;
	longitude 0;
	to nodeT6246313376119386;
	length 333.034;
	latitude 0;
	configuration 18949-LINECONFIG;
};

object overhead_line {
	phases A;
	from nodeT6246313376119386;
	name 19341;
	longitude 0;
	to nodeT6246313468319341;
	length 285.607;
	latitude 0;
	configuration 18949-LINECONFIG;
};

object overhead_line {
	phases A;
	from nodeT6246313468319341;
	name 19521;
	longitude 0;
	to nodeT6246313457819521;
	length 108.49;
	latitude 0;
	configuration 18949-LINECONFIG;
};

object overhead_line {
	phases A;
	from nodeT6246313468319341;
	name 19316;
	to node5796319316;
	longitude 0;
	length 159.789;
	latitude 0;
	configuration 18949-LINECONFIG;
};

object underground_line {
	phases A;
	from node5796319316;
	name 57963;
	longitude 0;
	to nodeT6246313662757963;
	length 215.958;
	latitude 0;
	configuration 58233-LINECONFIG;
};

object overhead_line {
	phases A;
	from node1938619340;
	name 19387;
	longitude 0;
	to nodeT6246313381819387;
	length 222.075;
	latitude 0;
	configuration 18949-LINECONFIG;
};

object overhead_line {
	phases A;
	from node1932919297;
	name 19328;
	longitude 0;
	to nodeT6246313249919328;
	length 252;
	latitude 0;
	configuration 18949-LINECONFIG;
};

object overhead_line {
	phases ACB;
	from node1909519041;
	name 19094;
	longitude 0;
	to nodeT6246313203719094;
	length 351.049;
	latitude 0;
	configuration 20531-LINECONFIG;
};

object overhead_line {
	phases ACB;
	from nodeT6246313203719094;
	name 19393;
	longitude 0;
	to nodeSW1248-A19393;
	length 78.1503;
	latitude 0;
	configuration 20531-LINECONFIG;
};

object overhead_line {
	phases A;
	from node1909519041;
	name 19048;
	longitude 0;
	to nodeF500719048;
	length 29.7713;
	latitude 0;
	configuration 18949-LINECONFIG;
};

object fuse {
	phases A;
	from nodeF500719048;
	name F5007;
	current_limit 9999.0 A;
	longitude 0;
	to node19049F5007;
	latitude 0;
};

object overhead_line {
	phases A;
	from node19049F5007;
	name 19049;
	to node1894919049;
	longitude 0;
	length 486.611;
	latitude 0;
	configuration 18949-LINECONFIG;
};

object line_configuration {
	name 18949-LINECONFIG;
	spacing 16781-LINESPACING;
	conductor_A 16781_conductor_C;
};

object overhead_line {
	phases A;
	from node1894919049;
	name 18949;
	longitude 0;
	to nodeT6246318883218949;
	length 346.911;
	latitude 0;
	configuration 18949-LINECONFIG;
};

object overhead_line {
	phases A;
	from nodeT6246318883218949;
	name 18948;
	longitude 0;
	to nodeT6246318978118948;
	length 375.825;
	latitude 0;
	configuration 19519-LINECONFIG;
};

object overhead_line {
	phases A;
	from nodeT6246318978118948;
	name 19136;
	to nodeT6246319059819136;
	longitude 0;
	length 341.47;
	latitude 0;
	configuration 19519-LINECONFIG;
};

object overhead_line {
	phases A;
	from nodeT6246319059819136;
	name 19096;
	longitude 0;
	to node1855819096;
	length 343.023;
	latitude 0;
	configuration 19519-LINECONFIG;
};

object overhead_line {
	phases A;
	from node1855819096;
	name 18558;
	longitude 0;
	to nodeT6246319350418558;
	length 226.764;
	latitude 0;
	configuration 18949-LINECONFIG;
};

object overhead_line {
	phases A;
	from nodeT6246318883218949;
	name 18907;
	longitude 0;
	to nodeT6246318788818907;
	length 157.693;
	latitude 0;
	configuration 18949-LINECONFIG;
};

object overhead_line {
	phases A;
	from nodeT6246318883218949;
	name 17950;
	longitude 0;
	to node1835917950;
	length 196.101;
	latitude 0;
	configuration 19519-LINECONFIG;
};

object overhead_line {
	phases A;
	from node1835917950;
	name 18359;
	longitude 0;
	to nodeT6246318674218359;
	length 243.492;
	latitude 0;
	configuration 19519-LINECONFIG;
};

object overhead_line {
	phases A;
	from nodeT6246318674218359;
	name 18330;
	longitude 0;
	to node1869618330;
	length 198.508;
	latitude 0;
	configuration 19519-LINECONFIG;
};

object overhead_line {
	phases A;
	from node1869618330;
	name 18696;
	to node1869518696;
	longitude 0;
	length 293.785;
	latitude 0;
	configuration 18949-LINECONFIG;
};

object overhead_line {
	phases A;
	from node1869518696;
	name 18695;
	longitude 0;
	to nodeT6246318545318695;
	length 215.575;
	latitude 0;
	configuration 18949-LINECONFIG;
};

object overhead_line {
	phases A;
	from nodeT6246318545318695;
	name 18790;
	longitude 0;
	to nodeT6246318632418790;
	length 216.201;
	latitude 0;
	configuration 18949-LINECONFIG;
};

object overhead_line {
	phases A;
	from node1869618330;
	name 18329;
	to nodeT6246318657718329;
	longitude 0;
	length 177.49;
	latitude 0;
	configuration 19519-LINECONFIG;
};

object overhead_line {
	phases A;
	from nodeT6246318674218359;
	name 18358;
	longitude 0;
	to node1889318358;
	length 116.619;
	latitude 0;
	configuration 18949-LINECONFIG;
};

object overhead_line {
	phases A;
	from node1889318358;
	name 18893;
	longitude 0;
	to node1891018893;
	length 245.206;
	latitude 0;
	configuration 18949-LINECONFIG;
};

object overhead_line {
	phases A;
	from node1891018893;
	name 18910;
	longitude 0;
	to node1902718910;
	length 361.047;
	latitude 0;
	configuration 18949-LINECONFIG;
};

object overhead_line {
	phases A;
	from node1902718910;
	name 19027;
	longitude 0;
	to nodeT6246318948219027;
	length 204.81;
	latitude 0;
	configuration 18949-LINECONFIG;
};

object overhead_line {
	phases A;
	from node1894919049;
	name 18991;
	longitude 0;
	to nodeT6246318897818991;
	length 150.83;
	latitude 0;
	configuration 18949-LINECONFIG;
};

object overhead_line {
	phases ACB;
	from node1875218753;
	name 18525;
	longitude 0;
	to node1882318525;
	length 361.26;
	latitude 0;
	configuration 20531-LINECONFIG;
};

object overhead_line {
	phases A;
	from node1882318525;
	name 18823;
	longitude 0;
	to nodeF759118823;
	length 25.0002;
	latitude 0;
	configuration 18949-LINECONFIG;
};

object fuse {
	phases A;
	from nodeF759118823;
	name F7591;
	current_limit 9999.0 A;
	longitude 0;
	to node18675F7591;
	latitude 0;
};

object overhead_line {
	phases A;
	from node18675F7591;
	name 18675;
	longitude 0;
	to nodeT6246312515318675;
	length 81.4961;
	latitude 0;
	configuration 18949-LINECONFIG;
};

object overhead_line {
	phases A;
	from nodeT6246312515318675;
	name 18674;
	longitude 0;
	to nodeT6246312408718674;
	length 177.052;
	latitude 0;
	configuration 18949-LINECONFIG;
};

object overhead_line {
	phases ACB;
	from node1882318525;
	name 18630;
	longitude 0;
	to node1788618630;
	length 303.262;
	latitude 0;
	configuration 20531-LINECONFIG;
};

object overhead_line {
	phases ACB;
	from node1788618630;
	name 17886;
	longitude 0;
	to nodeT6246312312617886;
	length 240.007;
	latitude 0;
	configuration 20531-LINECONFIG;
};

object overhead_line {
	phases ACB;
	from nodeT6246312312617886;
	name 17815;
	longitude 0;
	to nodeT6246312119717815;
	length 258.716;
	latitude 0;
	configuration 20531-LINECONFIG;
};

object overhead_line {
	phases ACB;
	from nodeT6246312119717815;
	name 18225;
	longitude 0;
	to node1809818225;
	length 311.169;
	latitude 0;
	configuration 20531-LINECONFIG;
};

object overhead_line {
	phases ACB;
	from node1809818225;
	name 18098;
	longitude 0;
	to node1802518098;
	length 393.013;
	latitude 0;
	configuration 20531-LINECONFIG;
};

object overhead_line {
	phases A;
	from node1802518098;
	name 18025;
	longitude 0;
	to nodeT6246217832118025;
	length 219.619;
	latitude 0;
	configuration 18949-LINECONFIG;
};

object overhead_line {
	phases C;
	from node1802518098;
	name 18094;
	longitude 0;
	to nodeF759818094;
	length 25;
	latitude 0;
	configuration 16781-LINECONFIG;
};

object fuse {
	phases C;
	from nodeF759818094;
	name F7598;
	current_limit 9999.0 A;
	longitude 0;
	to node17654F7598;
	latitude 0;
};

object overhead_line {
	phases C;
	from node17654F7598;
	name 17654;
	longitude 0;
	to nodeT6246223799617654;
	length 467.549;
	latitude 0;
	configuration 16781-LINECONFIG;
};

object overhead_line {
	phases C;
	from nodeT6246223799617654;
	name 17998;
	longitude 0;
	to nodeT6246223796417998;
	length 76.1979;
	latitude 0;
	configuration 16781-LINECONFIG;
};

object overhead_line {
	phases C;
	from nodeT6246223796417998;
	name 17773;
	longitude 0;
	to nodeT6246223698117773;
	length 158.17;
	latitude 0;
	configuration 16781-LINECONFIG;
};

object overhead_line {
	phases ACB;
	from node1802518098;
	name 17756;
	longitude 0;
	to node1753517756;
	length 370.349;
	latitude 0;
	configuration 20531-LINECONFIG;
};

object overhead_line {
	phases ACB;
	from node1753517756;
	name 17535;
	longitude 0;
	to node1655717535;
	length 436.493;
	latitude 0;
	configuration 20531-LINECONFIG;
};

object overhead_line {
	phases ACB;
	from node1655717535;
	name 16557;
	longitude 0;
	to node6806216557;
	length 231.048;
	latitude 0;
	configuration 20531-LINECONFIG;
};

object overhead_line {
	phases ACB;
	from node6806216557;
	name 68062;
	to nodeR120168062;
	longitude 0;
	length 16.7208;
	latitude 0;
	configuration 16564-LINECONFIG;
};

object fuse {
	phases ACB;
	from nodeR120168062;
	name R1201;
	current_limit 9999.0 A;
	longitude 0;
	to node68063R1201;
	latitude 0;
};

object overhead_line {
	phases ACB;
	from node68063R1201;
	name 68063;
	longitude 0;
	to node1656468063;
	length 13.0467;
	latitude 0;
	configuration 16564-LINECONFIG;
};

object line_configuration {
	name 16564-LINECONFIG;
	spacing 20531-LINESPACING;
	conductor_C 16564_conductor_B;
	conductor_B 16564_conductor_B;
	conductor_A 16564_conductor_B;
};

object overhead_line_conductor {
	diameter 0.23;
	name 16564_conductor_B;
	geometric_mean_radius 0.00479;
	resistance 2.44;
};

object overhead_line {
	phases ACB;
	from node1656468063;
	name 16564;
	longitude 0;
	to node1744316564;
	length 198.672;
	latitude 0;
	configuration 16564-LINECONFIG;
};

object overhead_line {
	phases ACB;
	from node1744316564;
	name 17443;
	longitude 0;
	to node1756317443;
	length 333.666;
	latitude 0;
	configuration 16564-LINECONFIG;
};

object overhead_line {
	phases ACB;
	from node1756317443;
	name 17563;
	longitude 0;
	to node1739117563;
	length 425.544;
	latitude 0;
	configuration 16564-LINECONFIG;
};

object overhead_line {