clock {
	timezone PST+8PDT;
	starttime '2000-01-01 00:00:00';
	stoptime '2000-01-02 00:00:00';
};

#set minimum_timestep=60;
#set profiler=1;
#set relax_naming_rules=1;
module generators;
module tape;
module climate;
module residential {
	implicit_enduses NONE;
};

module powerflow {
	solver_method NR;
	NR_iteration_limit 50;
};

object node {
	phases ABCN;
	name BURLINGTON;
	bustype SWING;
	nominal_voltage 7200.0;
};

object overhead_line {
	phases ACBN;
	from BURLINGTON;
	name 21003;
	to node2101121003;
	length 20.6237;
	configuration 20531line_configuration98301;
};

object overhead_line {
	phases ACBN;
	from node2101121003;
	name 21011;
	to node6830421011;
	length 13.0755;
	configuration 20531line_configuration98301;
};

object overhead_line {
	phases ACBN;
	from node6830421011;
	name 68304;
	to node6830568304;
	length 14.8233;
	configuration 20531line_configuration98301;
};

object overhead_line {
	phases ACBN;
	from node6830421011;
	name 68302;
	to node6830368302;
	length 10;
	configuration 20531line_configuration98301;
};

object overhead_line {
	phases ACBN;
	from node6830421011;
	name 68300;
	to node6830168300;
	length 10;
	configuration 20531line_configuration98301;
};

object overhead_line {
	phases ACBN;
	from node6830421011;
	name 68298;
	to node6829968298;
	length 19.0913;
	configuration 20531line_configuration98301;
};

object overhead_line {
	phases ACBN;
	from node6829968298;
	name 68299;
	to nodeR118268299;
	length 24.3563;
	configuration 20531line_configuration98301;
};

object fuse {
	phases ACBN;
	from nodeR118268299;
	name R1182;
	current_limit 9999.0 A;
	to node20944R1182;
};

object overhead_line {
	phases ACBN;
	from node20944R1182;
	name 20944;
	to node2083720944;
	length 82.2659;
	configuration 20531line_configuration98301;
};

object overhead_line {
	phases ACBN;
	from node2083720944;
	name 20837;
	to node2088120837;
	length 87.5465;
	configuration 20531line_configuration98301;
};

object overhead_line {
	phases ACBN;
	from node2088120837;
	name 20881;
	to node2044520881;
	length 281.156;
	configuration 20531line_configuration98301;
};

object overhead_line {
	phases ACBN;
	from node2044520881;
	name 20445;
	to node2054920445;
	length 465.786;
	configuration 20531line_configuration98301;
};

object overhead_line {
	phases ACBN;
	from node2054920445;
	name 20549;
	to node2036920549;
	length 212.612;
	configuration 20531line_configuration98301;
};

object overhead_line {
	phases ACBN;
	from node2036920549;
	name 20369;
	to node2050620369;
	length 302.735;
	configuration 20531line_configuration98301;
};

object overhead_line {
	phases ACBN;
	from node2050620369;
	name 20506;
	to node2036720506;
	length 178.526;
	configuration 20531line_configuration98301;
};

object overhead_line {
	phases ACBN;
	from node2036720506;
	name 20367;
	to nodeT6246302788020367;
	length 144.103;
	configuration 20531line_configuration98301;
};

object transformer {
	phases BS;
	from nodeT6246302788020367;
	name T62463027880;
	to node62463027798T62463027880;
	configuration T62474206624transformer_configuration90001;
};

object triplex_node {
	phases BS;
	power_12 100;
	name 62463027798;
	parent node62463027798T62463027880;
	nominal_voltage 120;
};

object overhead_line {
	phases ACBN;
	from nodeT6246302788020367;
	name 20286;
	to node2024820286;
	length 266.66;
	configuration 20531line_configuration98301;
};

object overhead_line {
	phases ACBN;
	from node2024820286;
	name 20248;
	to node2014520248;
	length 153.517;
	configuration 20531line_configuration98301;
};

object overhead_line {
	phases ACBN;
	from node2014520248;
	name 20145;
	to nodeT6246302460920145;
	length 357.003;
	configuration 20531line_configuration98301;
};

object overhead_line {
	phases AN;
	from nodeT6246302460920145;
	name 20129;
	to nodeF894420129;
	length 27.7071;
	configuration 18949line_configuration24501;
};

object fuse {
	phases AN;
	from nodeF894420129;
	name F8944;
	current_limit 9999.0 A;
	to node20130F8944;
};

object overhead_line {
	phases AN;
	from node20130F8944;
	name 20130;
	to nodeT6246302377520130;
	length 103.665;
	configuration 18949line_configuration24501;
};

object transformer {
	phases AS;
	from nodeT6246302377520130;
	name T62463023775;
	to node62463024800T62463023775;
	configuration T62474206624transformer_configuration90001;
};

object triplex_node {
	phases AS;
	power_12 100;
	name 62463024800;
	parent node62463024800T62463023775;
	nominal_voltage 120;
};

object triplex_node {
	phases AS;
	power_12 100;
	name 62463023758;
	parent node62463024800T62463023775;
	nominal_voltage 120;
};

object overhead_line {
	phases ACBN;
	from nodeT6246302460920145;
	name 20050;
	to nodeT6246302267620050;
	length 287.2;
	configuration 20531line_configuration98301;
};

object transformer {
	phases BS;
	from nodeT6246302267620050;
	name T62463022676;
	to node62463022720T62463022676;
	configuration T62474206624transformer_configuration90001;
};

object triplex_node {
	phases BS;
	power_12 100;
	name 62463022720;
	parent node62463022720T62463022676;
	nominal_voltage 120;
};

object overhead_line {
	phases ACBN;
	from nodeT6246302267620050;
	name 19663;
	to nodeT6246302166319663;
	length 211.226;
	configuration 20531line_configuration98301;
};

object transformer {
	phases CS;
	from nodeT6246302166319663;
	name T62463021663;
	to node62463021692T62463021663;
	configuration T62474206624transformer_configuration90001;
};

object triplex_node {
	phases CS;
	power_12 100;
	name 62463021692;
	parent node62463021692T62463021663;
	nominal_voltage 120;
};

object overhead_line {
	phases ACBN;
	from nodeT6246302166319663;
	name 19935;
	to nodeT6246302067019935;
	length 194.654;
	configuration 20531line_configuration98301;
};

object transformer {
	phases BS;
	from nodeT6246302067019935;
	name T62463020670;
	to node62463020586T62463020670;
	configuration T62474206624transformer_configuration90001;
};

object triplex_node {
	phases BS;
	power_12 100;
	name 62463020586;
	parent node62463020586T62463020670;
	nominal_voltage 120;
};

object overhead_line {
	phases ACBN;
	from nodeT6246302067019935;
	name 19597;
	to node1985219597;
	length 222.044;
	configuration 20531line_configuration98301;
};

object overhead_line {
	phases ACBN;
	from node1985219597;
	name 19852;
	to nodeT6246301941419852;
	length 273.49;
	configuration 20531line_configuration98301;
};

object transformer {
	phases AS;
	from nodeT6246301941419852;
	name T62463019414;
	to node62463019437T62463019414;
	configuration T62474206624transformer_configuration90001;
};

object triplex_node {
	phases AS;
	power_12 100;
	name 62463019437;
	parent node62463019437T62463019414;
	nominal_voltage 120;
};

object overhead_line {
	phases CN;
	from nodeT6246301941419852;
	name 19850;
	to nodeF757319850;
	length 26.5061;
	configuration 16781line_configuration73701;
};

object fuse {
	phases CN;
	from nodeF757319850;
	name F7573;
	current_limit 9999.0 A;
	to node19851F7573;
};

object overhead_line {
	phases CN;
	from node19851F7573;
	name 19851;
	to nodeT6246301946719851;
	length 80.8867;
	configuration 16781line_configuration73701;
};

object transformer {
	phases CS;
	from nodeT6246301946719851;
	name T62463019467;
	to node62463019498T62463019467;
	configuration T62474206624transformer_configuration90001;
};

object triplex_node {
	phases CS;
	power_12 1519.04;
	name 62463019498;
	parent node62463019498T62463019467;
	nominal_voltage 120;
};

object overhead_line {
	phases CN;
	from nodeT6246301941419852;
	name 19848;
	to nodeF794419848;
	length 28.1181;
	configuration 16781line_configuration73701;
};

object fuse {
	phases CN;
	from nodeF794419848;
	name F7944;
	current_limit 9999.0 A;
	to node19849F7944;
};

object overhead_line {
	phases CN;
	from node19849F7944;
	name 19849;
	to node1959219849;
	length 241.85;
	configuration 16781line_configuration73701;
};

object overhead_line {
	phases CN;
	from node1959219849;
	name 19592;
	to node1996419592;
	length 320.096;
	configuration 16781line_configuration73701;
};

object overhead_line {
	phases CN;
	from node1996419592;
	name 19964;
	to nodeT6246302228919964;
	length 319.967;
	configuration 16781line_configuration73701;
};

object transformer {
	phases CS;
	from nodeT6246302228919964;
	name T62463022289;
	to node62463022298T62463022289;
	configuration T62474206624transformer_configuration90001;
};

object triplex_node {
	phases CS;
	power_12 1655.3;
	name 62463022298;
	parent node62463022298T62463022289;
	nominal_voltage 120;
};

object overhead_line {
	phases CN;
	from nodeT6246302228919964;
	name 20061;
	to node2013220061;
	length 203.088;
	configuration 16781line_configuration73701;
};

object overhead_line {
	phases CN;
	from node2013220061;
	name 20132;
	to nodeT6246302425720132;
	length 158.947;
	configuration 16781line_configuration73701;
};

object transformer {
	phases CS;
	from nodeT6246302425720132;
	name T62463024257;
	to node62463025237T62463024257;
	configuration T62474206624transformer_configuration90001;
};

object triplex_node {
	phases CS;
	power_12 10133.7;
	name 62463025237;
	parent node62463025237T62463024257;
	nominal_voltage 120;
};

object overhead_line {
	phases AN;
	from nodeT6246301941419852;
	name 19837;
	to nodeF758219837;
	length 24.9997;
	configuration 18949line_configuration24501;
};

object fuse {
	phases AN;
	from nodeF758219837;
	name F7582;
	current_limit 9999.0 A;
	to node19770F7582;
};

object overhead_line {
	phases AN;
	from node19770F7582;
	name 19770;
	to nodeT6246301747919770;
	length 260.872;
	configuration 18949line_configuration24501;
};

object transformer {
	phases AS;
	from nodeT6246301747919770;
	name T62463017479;
	to node62463018503T62463017479;
	configuration T62474206624transformer_configuration90001;
};

object triplex_node {
	phases AS;
	power_12 100;
	name 62463018503;
	parent node62463018503T62463017479;
	nominal_voltage 120;
};

object overhead_line {
	phases AN;
	from nodeT6246301747919770;
	name 19750;
	to nodeT6246301745119750;
	length 174.815;
	configuration 18949line_configuration24501;
};

object transformer {
	phases AS;
	from nodeT6246301745119750;
	name T62463017451;
	to node62463017349T62463017451;
	configuration T62474206624transformer_configuration90001;
};

object triplex_node {
	phases AS;
	power_12 100;
	name 62463017349;
	parent node62463017349T62463017451;
	nominal_voltage 120;
};

object triplex_node {
	phases AS;
	power_12 100;
	name 62463017481;
	parent node62463017349T62463017451;
	nominal_voltage 120;
};

object overhead_line {
	phases AN;
	from nodeT6246301747919770;
	name 19583;
	to nodeT6246301555719583;
	length 467.84;
	configuration 18949line_configuration24501;
};

object transformer {
	phases AS;
	from nodeT6246301555719583;
	name T62463015557;
	to node62463016405T62463015557;
	configuration T62474206624transformer_configuration90001;
};

object triplex_node {
	phases AS;
	power_12 100;
	name 62463016405;
	parent node62463016405T62463015557;
	nominal_voltage 120;
};

object triplex_node {
	phases AS;
	power_12 100;
	name 62463014593;
	parent node62463016405T62463015557;
	nominal_voltage 120;
};

object overhead_line {
	phases AN;
	from nodeT6246301555719583;
	name 19342;
	to nodeT6246301357619342;
	length 372.94;
	configuration 18949line_configuration24501;
};

object transformer {
	phases AS;
	from nodeT6246301357619342;
	name T62463013576;
	to node62463013691T62463013576;
	configuration T62474206624transformer_configuration90001;
};

object triplex_node {
	phases AS;
	power_12 100;
	name 62463013691;
	parent node62463013691T62463013576;
	nominal_voltage 120;
};

object overhead_line {
	phases AN;
	from nodeT6246301357619342;
	name 19399;
	to nodeT6246301254019399;
	length 288.845;
	configuration 18949line_configuration24501;
};

object transformer {
	phases AS;
	from nodeT6246301254019399;
	name T62463012540;
	to node62463012543T62463012540;
	configuration T62474206624transformer_configuration90001;
};

object triplex_node {
	phases AS;
	power_12 100;
	name 62463012543;
	parent node62463012543T62463012540;
	nominal_voltage 120;
};

object overhead_line {
	phases AN;
	from nodeT6246301555719583;
	name 19584;
	to node1948319584;
	length 235.1;
	configuration 18949line_configuration24501;
};

object overhead_line {
	phases AN;
	from node1948319584;
	name 19483;
	to nodeT6246301473419483;
	length 316.703;
	configuration 18949line_configuration24501;
};

object transformer {
	phases AS;
	from nodeT6246301473419483;
	name T62463014734;
	to node62463014628T62463014734;
	configuration T62474206624transformer_configuration90001;
};

object triplex_node {
	phases AS;
	power_12 100;
	name 62463014628;
	parent node62463014628T62463014734;
	nominal_voltage 120;
};

object triplex_node {
	phases AS;
	power_12 100;
	name 62463014757;
	parent node62463014628T62463014734;
	nominal_voltage 120;
};

object overhead_line {
	phases AN;
	from nodeT6246301473419483;
	name 19474;
	to nodeT6246301373719474;
	length 201.012;
	configuration 18949line_configuration24501;
};

object transformer {
	phases AS;
	from nodeT6246301373719474;
	name T62463013737;
	to node62463013707T62463013737;
	configuration T62474206624transformer_configuration90001;
};

object triplex_node {
	phases AS;
	power_12 100;
	name 62463013707;
	parent node62463013707T62463013737;
	nominal_voltage 120;
};

object overhead_line {
	phases AN;
	from node1948319584;
	name 18573;
	to nodeT6246301683718573;
	length 383.447;
	configuration 18949line_configuration24501;
};

object transformer {
	phases AS;
	from nodeT6246301683718573;
	name T62463016837;
	to node62463016900T62463016837;
	configuration T62474206624transformer_configuration90001;
};

object triplex_node {
	phases AS;
	power_12 100;
	name 62463016900;
	parent node62463016900T62463016837;
	nominal_voltage 120;
};

object overhead_line {
	phases AN;
	from nodeT6246301683718573;
	name 19688;
	to nodeT6247419602319688;
	length 321.462;
	configuration 18949line_configuration24501;
};

object transformer {
	phases AS;
	from nodeT6247419602319688;
	name T62474196023;
	to node62474195011T62474196023;
	configuration T62474206624transformer_configuration90001;
};

object triplex_node {
	phases AS;
	power_12 100;
	name 62474195011;
	parent node62474195011T62474196023;
	nominal_voltage 120;
};

object triplex_node {
	phases AS;
	power_12 100;
	name 62463016996;
	parent node62474195011T62474196023;
	nominal_voltage 120;
};

object overhead_line {
	phases AN;
	from nodeT6247419602319688;
	name 19558;
	to nodeT6247419610319558;
	length 211.036;
	configuration 18949line_configuration24501;
};

object transformer {
	phases AS;
	from nodeT6247419610319558;
	name T62474196103;
	to node62474195151T62474196103;
	configuration T62474206624transformer_configuration90001;
};

object triplex_node {
	phases AS;
	power_12 100;
	name 62474195151;
	parent node62474195151T62474196103;
	nominal_voltage 120;
};

object overhead_line {
	phases AN;
	from nodeT6247419610319558;
	name 19560;
	to nodeT6247419621319560;
	length 202.261;
	configuration 18949line_configuration24501;
};

object transformer {
	phases AS;
	from nodeT6247419621319560;
	name T62474196213;
	to node62474195268T62474196213;
	configuration T62474206624transformer_configuration90001;
};

object triplex_node {
	phases AS;
	power_12 100;
	name 62474195268;
	parent node62474195268T62474196213;
	nominal_voltage 120;
};

object triplex_node {
	phases AS;
	power_12 100;
	name 62474195267;
	parent node62474195268T62474196213;
	nominal_voltage 120;
};

object overhead_line {
	phases AN;
	from nodeT6247419621319560;
	name 19683;
	to nodeT6247419635319683;
	length 217.697;
	configuration 18949line_configuration24501;
};

object transformer {
	phases AS;
	from nodeT6247419635319683;
	name T62474196353;
	to node62474196319T62474196353;
	configuration T62474206624transformer_configuration90001;
};

object triplex_node {
	phases AS;
	power_12 100;
	name 62474196319;
	parent node62474196319T62474196353;
	nominal_voltage 120;
};

object triplex_node {
	phases AS;
	power_12 100;
	name 62474197334;
	parent node62474196319T62474196353;
	nominal_voltage 120;
};

object overhead_line {
	phases AN;
	from nodeT6247419621319560;
	name 19682;
	to nodeT6247419721519682;
	length 198.705;
	configuration 18949line_configuration24501;
};

object transformer {
	phases AS;
	from nodeT6247419721519682;
	name T62474197215;
	to node62474197221T62474197215;
	configuration T62474206624transformer_configuration90001;
};

object triplex_node {
	phases AS;
	power_12 100;
	name 62474197221;
	parent node62474197221T62474197215;
	nominal_voltage 120;
};

object overhead_line {
	phases AN;
	from nodeT6247419610319558;
	name 19559;
	to nodeT6247419710519559;
	length 202.235;
	configuration 18949line_configuration24501;
};

object transformer {
	phases AS;
	from nodeT6247419710519559;
	name T62474197105;
	to node62474196191T62474197105;
	configuration T62474206624transformer_configuration90001;
};

object triplex_node {
	phases AS;
	power_12 100;
	name 62474196191;
	parent node62474196191T62474197105;
	nominal_voltage 120;
};

object overhead_line {
	phases AN;
	from node1948319584;
	name 18572;
	to nodeT6246301663418572;
	length 141.214;
	configuration 18949line_configuration24501;
};

object transformer {
	phases AS;
	from nodeT6246301663418572;
	name T62463016634;
	to node62463016539T62463016634;
	configuration T62474206624transformer_configuration90001;
};

object triplex_node {
	phases AS;
	power_12 100;
	name 62463016539;
	parent node62463016539T62463016634;
	nominal_voltage 120;
};

object overhead_line {
	phases ACBN;
	from nodeT6246301941419852;
	name 19815;
	to nodeT6246301824919815;
	length 335.444;
	configuration 20531line_configuration98301;
};

object transformer {
	phases BS;
	from nodeT6246301824919815;
	name T62463018249;
	to node62463018228T62463018249;
	configuration T62474206624transformer_configuration90001;
};

object triplex_node {
	phases BS;
	power_12 100;
	name 62463018228;
	parent node62463018228T62463018249;
	nominal_voltage 120;
};

object overhead_line {
	phases CN;
	from nodeT6246301824919815;
	name 19816;
	to nodeF581519816;
	length 26.6007;
	configuration 16781line_configuration73701;
};

object fuse {
	phases CN;
	from nodeF581519816;
	name F5815;
	current_limit 9999.0 A;
	to node19563F5815;
};

object overhead_line {
	phases CN;
	from node19563F5815;
	name 19563;
	to nodeT6246301925319563;
	length 243.066;
	configuration 16781line_configuration73701;
};

object transformer {
	phases CS;
	from nodeT6246301925319563;
	name T62463019253;
	to node62463019285T62463019253;
	configuration T62474206624transformer_configuration90001;
};

object triplex_node {
	phases CS;
	power_12 4534.42;
	name 62463019285;
	parent node62463019285T62463019253;
	nominal_voltage 120;
};

object overhead_line {
	phases CN;
	from nodeT6246301925319563;
	name 19237;
	to nodeT6246302120019237;
	length 305.297;
	configuration 16781line_configuration73701;
};

object transformer {
	phases CS;
	from nodeT6246302120019237;
	name T62463021200;
	to node62463021167T62463021200;
	configuration T62474206624transformer_configuration90001;
};

object triplex_node {
	phases CS;
	power_12 3757.23;
	name 62463021167;
	parent node62463021167T62463021200;
	nominal_voltage 120;
};

object overhead_line {
	phases ACBN;
	from nodeT6246301824919815;
	name 19765;
	to node1974819765;
	length 386.822;
	configuration 20531line_configuration98301;
};

object overhead_line {
	phases ACBN;
	from node1974819765;
	name 19748;
	to nodeT6246301704519748;
	length 137.975;
	configuration 20531line_configuration98301;
};

object transformer {
	phases BS;
	from nodeT6246301704519748;
	name T62463017045;
	to node62463017062T62463017045;
	configuration T62474206624transformer_configuration90001;
};

object triplex_node {
	phases BS;
	power_12 100;
	name 62463017062;
	parent node62463017062T62463017045;
	nominal_voltage 120;
};

object overhead_line {
	phases AN;
	from nodeT6246301704519748;
	name 19740;
	to nodeF758519740;
	length 25.0001;
	configuration 18949line_configuration24501;
};

object fuse {
	phases AN;
	from nodeF758519740;
	name F7585;
	current_limit 9999.0 A;
	to node19714F7585;
};

object overhead_line {
	phases AN;
	from node19714F7585;
	name 19714;
	to nodeT6246301607719714;
	length 118.283;
	configuration 18949line_configuration24501;
};

object transformer {
	phases AS;
	from nodeT6246301607719714;
	name T62463016077;
	to node62463016038T62463016077;
	configuration T62474206624transformer_configuration90001;
};

object triplex_node {
	phases AS;
	power_12 100;
	name 62463016038;
	parent node62463016038T62463016077;
	nominal_voltage 120;
};

object overhead_line {
	phases AN;
	from nodeT6246301607719714;
	name 18588;
	to node1950718588;
	length 218.301;
	configuration 18949line_configuration24501;
};

object overhead_line {
	phases AN;
	from node1950718588;
	name 19507;
	to nodeT6246301405019507;
	length 286.217;
	configuration 18949line_configuration24501;
};

object transformer {
	phases AS;
	from nodeT6246301405019507;
	name T62463014050;
	to node62463074975T62463014050;
	configuration T62474206624transformer_configuration90001;
};

object triplex_node {
	phases AS;
	power_12 100;
	name 62463074975;
	parent node62463074975T62463014050;
	nominal_voltage 120;
};

object overhead_line {
	phases AN;
	from nodeT6246301704519748;
	name 19561;
	to nodeT6246301620119561;
	length 428.982;
	configuration 19519line_configuration15901;
};

object transformer {
	phases AS;
	from nodeT6246301620119561;
	name T62463016201;
	to node62463016251T62463016201;
	configuration T62474206624transformer_configuration90001;
};

object triplex_node {
	phases AS;
	power_12 100;
	name 62463016251;
	parent node62463016251T62463016201;
	nominal_voltage 120;
};

object triplex_node {
	phases AS;
	power_12 100;
	name 62463015244;
	parent node62463016251T62463016201;
	nominal_voltage 120;
};

object overhead_line {
	phases ACBN;
	from nodeT6246301704519748;
	name 19731;
	to node5801719731;
	length 155.789;
	configuration 20531line_configuration98301;
};

object underground_line {
	phases ACBN;
	from node5801719731;
	name 58017;
	to nodeF758658017;
	length 24.9999;
	configuration 57825line_configuration40901;
};

object fuse {
	phases ACB;
	from nodeF758658017;
	name F7586;
	current_limit 9999.0 A;
	to node58021F7586;
};

object underground_line {
	phases ACB;
	from node58021F7586;
	name 58021;
	to nodeT6246307892258021;
	length 201.626;
	configuration 57825line_configuration40901;
};

object transformer {
	phases AS;
	from nodeT6246307892258021;
	name T62463078922;
	to node62463078953T62463078922;
	configuration T62474206624transformer_configuration90001;
};

object triplex_node {
	phases AS;
	power_12 3072.58;
	name 62463078953;
	parent node62463078953T62463078922;
	nominal_voltage 120;
};

object overhead_line {
	phases ACBN;
	from node5801719731;
	name 19589;
	to nodeT6246307689919589;
	length 172.639;
	configuration 20531line_configuration98301;
};

object transformer {
	phases BS;
	from nodeT6246307689919589;
	name T62463076899;
	to node62463076992T62463076899;
	configuration T62474206624transformer_configuration90001;
};

object triplex_node {
	phases BS;
	power_12 100;
	name 62463076992;
	parent node62463076992T62463076899;
	nominal_voltage 120;
};

object triplex_node {
	phases BS;
	power_12 100;
	name 62463076991;
	parent node62463076992T62463076899;
	nominal_voltage 120;
};

object triplex_node {
	phases BS;
	power_12 100;
	name 62463076869;
	parent node62463076992T62463076899;
	nominal_voltage 120;
};

object overhead_line {
	phases ACBN;
	from nodeT6246307689919589;
	name 19538;
	to nodeT6246307566519538;
	length 561.815;
	configuration 20531line_configuration98301;
};

object overhead_line {
	phases AN;
	from nodeT6246307566519538;
	name 19582;
	to nodeF758719582;
	length 22.8798;
	configuration 19519line_configuration15901;
};

object fuse {
	phases AN;
	from nodeF758719582;
	name F7587;
	current_limit 9999.0 A;
	to node19196F7587;
};

object overhead_line {
	phases AN;
	from node19196F7587;
	name 19196;
	to node1951919196;
	length 64.7094;
	configuration 19519line_configuration15901;
};

object line_configuration {
	name 19519line_configuration15901;
	spacing 20531line_configuration98301line_spacing98302;
	conductor_N 16564line_configuration32701overhead_line_conductor32706;
	conductor_A 16564line_configuration32701overhead_line_conductor32706;
	conductor_C 17366line_configuration62801overhead_line_conductor62804;
	conductor_B 17366line_configuration62801overhead_line_conductor62804;
};

object overhead_line {
	phases AN;
	from node1951919196;
	name 19519;
	to nodeT6246307477519519;
	length 186.866;
	configuration 19519line_configuration15901;
};

object transformer {
	phases AS;
	from nodeT6246307477519519;
	name T62463074775;
	to node62463074798T62463074775;
	configuration T62474206624transformer_configuration90001;
};

object triplex_node {
	phases AS;
	power_12 100;
	name 62463074798;
	parent node62463074798T62463074775;
	nominal_voltage 120;
};

object triplex_node {
	phases AS;
	power_12 100;
	name 62463074872;
	parent node62463074798T62463074775;
	nominal_voltage 120;
};

object overhead_line {
	phases ACBN;
	from nodeT6246307566519538;
	name 19186;
	to node1950119186;
	length 169.689;
	configuration 20531line_configuration98301;
};

object overhead_line {
	phases ACBN;
	from node1950119186;
	name 19501;
	to node1934519501;
	length 293.041;
	configuration 20531line_configuration98301;
};

object overhead_line {
	phases ACBN;
	from node1934519501;
	name 19345;
	to node1934419345;
	length 421.542;
	configuration 20531line_configuration98301;
};

object overhead_line {
	phases CN;
	from node1934419345;
	name 19344;
	to nodeF758919344;
	length 25;
	configuration 16781line_configuration73701;
};

object fuse {
	phases CN;
	from nodeF758919344;
	name F7589;
	current_limit 9999.0 A;
	to node19353F7589;
};

object overhead_line {
	phases CN;
	from node19353F7589;
	name 19353;
	to nodeT6246307416519353;
	length 235.932;
	configuration 16781line_configuration73701;
};

object transformer {
	phases CS;
	from nodeT6246307416519353;
	name T62463074165;
	to node62463074197T62463074165;
	configuration T62474206624transformer_configuration90001;
};

object triplex_node {
	phases CS;
	power_12 2697.44;
	name 62463074197;
	parent node62463074197T62463074165;
	nominal_voltage 120;
};

object overhead_line {
	phases CN;
	from nodeT6246307416519353;
	name 19512;
	to nodeT6246307416119512;
	length 78.2066;
	configuration 16781line_configuration73701;
};

object transformer {
	phases CS;
	from nodeT6246307416119512;
	name T62463074161;
	to node62463073088T62463074161;
	configuration T62474206624transformer_configuration90001;
};

object triplex_node {
	phases CS;
	power_12 2172.58;
	name 62463073088;
	parent node62463073088T62463074161;
	nominal_voltage 120;
};

object triplex_node {
	phases CS;
	power_12 787.278;
	name 62463074161;
	parent node62463073088T62463074161;
	nominal_voltage 120;
};

object overhead_line {
	phases CN;
	from nodeT6246307416119512;
	name 19511;
	to node1920219511;
	length 187.008;
	configuration 16781line_configuration73701;
};

object overhead_line {
	phases CN;
	from node1920219511;
	name 19202;
	to node1970519202;
	length 268.521;
	configuration 16781line_configuration73701;
};

object overhead_line {
	phases CN;
	from node1970519202;
	name 19705;
	to node1973319705;
	length 144.519;
	configuration 16781line_configuration73701;
};

object overhead_line {
	phases CN;
	from node1973319705;
	name 19733;
	to node1979319733;
	length 159.822;
	configuration 16781line_configuration73701;
};

object overhead_line {
	phases CN;
	from node1979319733;
	name 19793;
	to node1957319793;
	length 192.016;
	configuration 16781line_configuration73701;
};

object overhead_line {
	phases CN;
	from node1957319793;
	name 19573;
	to nodeT6246307912719573;
	length 242.98;
	configuration 16781line_configuration73701;
};

object transformer {
	phases CS;
	from nodeT6246307912719573;
	name T62463079127;
	to node62463079175T62463079127;
	configuration T62474206624transformer_configuration90001;
};

object triplex_node {
	phases CS;
	power_12 2914.44;
	name 62463079175;
	parent node62463079175T62463079127;
	nominal_voltage 120;
};

object overhead_line {
	phases CN;
	from node1979319733;
	name 19792;
	to nodeT6246313995019792;
	length 336;
	configuration 16781line_configuration73701;
};

object transformer {
	phases CS;
	from nodeT6246313995019792;
	name T62463139950;
	to node62463139865T62463139950;
	configuration T62474206624transformer_configuration90001;
};

object triplex_node {
	phases CS;
	power_12 2540.99;
	name 62463139865;
	parent node62463139865T62463139950;
	nominal_voltage 120;
};

object overhead_line {
	phases CN;
	from node1920219511;
	name 19198;
	to nodeT6246307513319198;
	length 115.812;
	configuration 16781line_configuration73701;
};

object transformer {
	phases CS;
	from nodeT6246307513319198;
	name T62463075133;
	to node62463075194T62463075133;
	configuration T62474206624transformer_configuration90001;
};

object triplex_node {
	phases CS;
	power_12 4567.22;
	name 62463075194;
	parent node62463075194T62463075133;
	nominal_voltage 120;
};

object overhead_line {
	phases ACBN;
	from node1934419345;
	name 19384;
	to nodeT6246307203119384;
	length 546.446;
	configuration 20531line_configuration98301;
};

object transformer {
	phases BS;
	from nodeT6246307203119384;
	name T62463072031;
	to node62463133906T62463072031;
	configuration T62474206624transformer_configuration90001;
};

object triplex_node {
	phases BS;
	power_12 100;
	name 62463133906;
	parent node62463133906T62463072031;
	nominal_voltage 120;
};

object overhead_line {
	phases ACBN;
	from nodeT6246307203119384;
	name 70924;
	to node7092570924;
	length 131.068;
	configuration 20531line_configuration98301;
};

object overhead_line {
	phases ACBN;
	from node7092570924;
	name 70925;
	to nodeSW1250-Bx170925;
	length 222.516;
	configuration 20531line_configuration98301;
};

object switch {
	status CLOSED;
	phases ACBN;
	from nodeSW1250-Bx170925;