clock {
	timezone PST+8PDT;
	starttime '2000-01-01 00:00:00';
	stoptime '2000-01-02 00:00:00';
};

#set minimum_timestep=60;
#set profiler=1;
#set relax_naming_rules=1;
module generators;
module tape;
module climate;
module residential {
	implicit_enduses NONE;
};

module powerflow {
	solver_method NR;
	NR_iteration_limit 50;
};

object node {
	phases ABCN;
	name FRIENDSHIP;
	bustype SWING;
	nominal_voltage 7200.0;
};

object underground_line {
	phases ACBN;
	from FRIENDSHIP;
	name 958175;
	to nodeRFRN1-R0001x1958175;
	length 24;
	configuration 924103line_configuration196601;
};

object fuse {
	phases ACB;
	from nodeRFRN1-R0001x1958175;
	name RFRN1-R0001x1;
	current_limit 9999.0 A;
	to node958178RFRN1-R0001x1;
};

object underground_line {
	phases ACB;
	from node958178RFRN1-R0001x1;
	name 958178;
	to node958179958178;
	length 780;
	configuration 924103line_configuration196601;
};

object underground_line {
	phases ACB;
	from node958179958178;
	name 958179;
	to node978201958179;
	length 860;
	configuration 924103line_configuration196601;
};

object underground_line {
	phases B;
	from node978201958179;
	name 978201;
	to nodeF28648x1978201;
	length 26;
	configuration 924103line_configuration196601;
};

object fuse {
	phases B;
	from nodeF28648x1978201;
	name F28648x1;
	current_limit 9999.0 A;
	to node978188F28648x1;
};

object underground_line {
	phases B;
	from node978188F28648x1;
	name 978188;
	to nodeT28649978188;
	length 238;
	configuration 924103line_configuration196601;
};

object transformer {
	phases BS;
	from nodeT28649978188;
	name T28649;
	to nodeS1706-04-005T28649;
	configuration T10633transformer_configuration360401;
};

object triplex_node {
	phases BS;
	power_12 100;
	name S1706-04-005;
	parent nodeS1706-04-005T28649;
	nominal_voltage 120;
};

object underground_line {
	phases ACB;
	from node978201958179;
	name 978195;
	to node978172978195;
	length 1970;
	configuration 924103line_configuration196601;
};

object underground_line {
	phases ACB;
	from node978172978195;
	name 978172;
	to node978204978172;
	length 780;
	configuration 924103line_configuration196601;
};

object underground_line {
	phases ACB;
	from node978204978172;
	name 978204;
	to node978186978204;
	length 66;
	configuration 924103line_configuration196601;
};

object overhead_line {
	phases ACBN;
	from node978186978204;
	name 978186;
	to node1806-33-094978186;
	length 270;
	configuration 978187line_configuration5001;
};

object transformer {
	phases CS;
	from node1806-33-094978186;
	name 1806-33-094;
	to nodeS1806-33-0701806-33-094;
	configuration T10633transformer_configuration360401;
};

object triplex_node {
	phases CS;
	power_12 1902.11;
	name S1806-33-070;
	parent nodeS1806-33-0701806-33-094;
	nominal_voltage 120;
};

object triplex_node {
	phases CS;
	power_12 1398.38;
	name S1806-32-140;
	parent nodeS1806-33-0701806-33-094;
	nominal_voltage 120;
};

object overhead_line {
	phases ACBN;
	from node1806-33-094978186;
	name 978169;
	to node978214978169;
	length 230;
	configuration 978187line_configuration5001;
};

object underground_line {
	phases AN;
	from node978214978169;
	name 978214;
	to nodeF28654x1978214;
	length 10;
	configuration 924103line_configuration196601;
};

object fuse {
	phases A;
	from nodeF28654x1978214;
	name F28654x1;
	current_limit 9999.0 A;
	to node978199F28654x1;
};

object underground_line {
	phases A;
	from node978199F28654x1;
	name 978199;
	to nodeT28655978199;
	length 135;
	configuration 924103line_configuration196601;
};

object transformer {
	phases AS;
	from nodeT28655978199;
	name T28655;
	to nodeS1806-32-127T28655;
	configuration T10633transformer_configuration360401;
};

object triplex_node {
	phases AS;
	power_12 100;
	name S1806-32-127;
	parent nodeS1806-32-127T28655;
	nominal_voltage 120;
};

object overhead_line {
	phases ACBN;
	from node978214978169;
	name 978180;
	to node978184978180;
	length 180;
	configuration 978187line_configuration5001;
};

object overhead_line {
	phases ACBN;
	from node978184978180;
	name 978184;
	to node1806-33-097978184;
	length 188;
	configuration 978187line_configuration5001;
};

object transformer {
	phases BS;
	from node1806-33-097978184;
	name 1806-33-097;
	to nodeS1806-33-0711806-33-097;
	configuration T10633transformer_configuration360401;
};

object triplex_node {
	phases BS;
	power_12 100;
	name S1806-33-071;
	parent nodeS1806-33-0711806-33-097;
	nominal_voltage 120;
};

object triplex_node {
	phases BS;
	power_12 100;
	name S1806-32-038;
	parent nodeS1806-33-0711806-33-097;
	nominal_voltage 120;
};

object overhead_line {
	phases ACBN;
	from node1806-33-097978184;
	name 978198;
	to node1806-33-098978198;
	length 297;
	configuration 978187line_configuration5001;
};

object transformer {
	phases BS;
	from node1806-33-098978198;
	name 1806-33-098;
	to nodeS1806-32-1321806-33-098;
	configuration T10633transformer_configuration360401;
};

object triplex_node {
	phases BS;
	power_12 100;
	name S1806-32-132;
	parent nodeS1806-32-1321806-33-098;
	nominal_voltage 120;
};

object triplex_node {
	phases BS;
	power_12 100;
	name S1806-32-033;
	parent nodeS1806-32-1321806-33-098;
	nominal_voltage 120;
};

object overhead_line {
	phases ACBN;
	from node1806-33-098978198;
	name 978173;
	to node978185978173;
	length 225;
	configuration 978187line_configuration5001;
};

object overhead_line {
	phases ACBN;
	from node978185978173;
	name 978185;
	to node978190978185;
	length 225;
	configuration 978187line_configuration5001;
};

object overhead_line_conductor {
	geometric_mean_radius 0.0304;
	resistance 0.216;
	name 978190line_configuration3401overhead_line_conductor3404;
};

object overhead_line {
	phases ACBN;
	from node978190978185;
	name 978190;
	to node978196978190;
	length 225;
	configuration 978187line_configuration5001;
};

object overhead_line {
	phases ACBN;
	from node978196978190;
	name 978196;
	to node978178978196;
	length 225;
	configuration 978187line_configuration5001;
};

object overhead_line {
	phases ACBN;
	from node978178978196;
	name 978178;
	to node1806-33-103978178;
	length 280;
	configuration 978187line_configuration5001;
};

object transformer {
	phases CS;
	from node1806-33-103978178;
	name 1806-33-103;
	to nodeS1806-33-0521806-33-103;
	configuration T10633transformer_configuration360401;
};

object triplex_node {
	phases CS;
	power_12 3172.13;
	name S1806-33-052;
	parent nodeS1806-33-0521806-33-103;
	nominal_voltage 120;
};

object overhead_line {
	phases ACBN;
	from node1806-33-103978178;
	name 978171;
	to node978175978171;
	length 250;
	configuration 978187line_configuration5001;
};

object overhead_line {
	phases ACBN;
	from node978175978171;
	name 978175;
	to node978181978175;
	length 225;
	configuration 978187line_configuration5001;
};

object overhead_line {
	phases ACBN;
	from node978181978175;
	name 978181;
	to node978197978181;
	length 225;
	configuration 978187line_configuration5001;
};

object overhead_line {
	phases ACBN;
	from node978197978181;
	name 978197;
	to node978233978197;
	length 225;
	configuration 978187line_configuration5001;
};

object underground_line {
	phases ACBN;
	from node978233978197;
	name 978233;
	to node28656x1-A978233;
	length 60;
	configuration 924103line_configuration196601;
};

object overhead_line {
	phases ACBN;
	from node978233978197;
	name 978176;
	to node978189978176;
	length 203;
	configuration 978187line_configuration5001;
};

object overhead_line {
	phases ACBN;
	from node978189978176;
	name 978189;
	to node978202978189;
	length 203;
	configuration 978187line_configuration5001;
};

object overhead_line {
	phases ACBN;
	from node978202978189;
	name 978202;
	to node1806-28-033978202;
	length 203;
	configuration 978187line_configuration5001;
};

object transformer {
	phases BS;
	from node1806-28-033978202;
	name 1806-28-033;
	to nodeS1806-32-0011806-28-033;
	configuration T10633transformer_configuration360401;
};

object triplex_node {
	phases BS;
	power_12 100;
	name S1806-32-001;
	parent nodeS1806-32-0011806-28-033;
	nominal_voltage 120;
};

object line_configuration {
	name 978187line_configuration5001;
	spacing 840677line_configuration163801line_spacing163802;
	conductor_N 926524line_configuration302701overhead_line_conductor302705;
	conductor_A 978190line_configuration3401overhead_line_conductor3404;
	conductor_C 978190line_configuration3401overhead_line_conductor3404;
	conductor_B 978190line_configuration3401overhead_line_conductor3404;
};

object overhead_line {
	phases ACBN;
	from node1806-28-033978202;
	name 978187;
	to node979018978187;
	length 292;
	configuration 978187line_configuration5001;
};

object overhead_line {
	phases ACBN;
	from node979018978187;
	name 979018;
	to node1806-29-081979018;
	length 60;
	configuration 985207line_configuration65101;
};

object transformer {
	phases AS;
	from node1806-29-081979018;
	name 1806-29-081;
	to nodeS1806-29-0011806-29-081;
	configuration T10633transformer_configuration360401;
};

object triplex_node {
	phases AS;
	power_12 100;
	name S1806-29-001;
	parent nodeS1806-29-0011806-29-081;
	nominal_voltage 120;
};

object overhead_line {
	phases ACBN;
	from node1806-29-081979018;
	name 979019;
	to node978936979019;
	length 250;
	configuration 985207line_configuration65101;
};

object overhead_line {
	phases ACBN;
	from node978936979019;
	name 978936;
	to node978937978936;
	length 250;
	configuration 985207line_configuration65101;
};

object overhead_line {
	phases ACBN;
	from node978937978936;
	name 978937;
	to node978938978937;
	length 250;
	configuration 985207line_configuration65101;
};

object overhead_line {
	phases ACBN;
	from node978938978937;
	name 978938;
	to node978939978938;
	length 250;
	configuration 985207line_configuration65101;
};

object overhead_line {
	phases ACBN;
	from node978939978938;
	name 978939;
	to node978940978939;
	length 250;
	configuration 985207line_configuration65101;
};

object overhead_line {
	phases ACBN;
	from node978940978939;
	name 978940;
	to node979020978940;
	length 230;
	configuration 985207line_configuration65101;
};

object overhead_line {
	phases ACBN;
	from node979020978940;
	name 979020;
	to node1806-29-088979020;
	length 225;
	configuration 985207line_configuration65101;
};

object transformer {
	phases BS;
	from node1806-29-088979020;
	name 1806-29-088;
	to nodeS1806-28-0021806-29-088;
	configuration T10633transformer_configuration360401;
};

object triplex_node {
	phases BS;
	power_12 100;
	name S1806-28-002;
	parent nodeS1806-28-0021806-29-088;
	nominal_voltage 120;
};

object overhead_line {
	phases ACBN;
	from node1806-29-088979020;
	name 979022;
	to node979023979022;
	length 305;
	configuration 985207line_configuration65101;
};

object overhead_line {
	phases ACBN;
	from node979023979022;
	name 979023;
	to node979025979023;
	length 250;
	configuration 985207line_configuration65101;
};

object overhead_line {
	phases ACB;
	from node979025979023;
	name 979025;
	to node979026979025;
	length 250;
	configuration 985207line_configuration65101;
};

object underground_line {
	phases ACB;
	from node979026979025;
	name 979026;
	to node839565979026;
	length 20;
	configuration 924103line_configuration196601;
};

object underground_line {
	phases ACB;
	from node839565979026;
	name 839565;
	to node979027839565;
	length 963;
	configuration 924103line_configuration196601;
};

object overhead_line {
	phases B;
	from node979027839565;
	name 979027;
	to node841710979027;
	length 40;
	configuration 841870line_configuration32601;
};

object underground_line {
	phases B;
	from node841710979027;
	name 841710;
	to nodeF28662x1841710;
	length 10;
	configuration 924103line_configuration196601;
};

object fuse {
	phases B;
	from nodeF28662x1841710;
	name F28662x1;
	current_limit 9999.0 A;
	to node841711F28662x1;
};

object underground_line {
	phases B;
	from node841711F28662x1;
	name 841711;
	to node1806-0326841711;
	length 139;
	configuration 924103line_configuration196601;
};

object transformer {
	phases BS;
	from node1806-0326841711;
	name 1806-0326;
	to nodeS1806-29-0031806-0326;
	configuration T10633transformer_configuration360401;
};

object triplex_node {
	phases BS;
	power_12 100;
	name S1806-29-003;
	parent nodeS1806-29-0031806-0326;
	nominal_voltage 120;
};

object overhead_line {
	phases ACBN;
	from node979027839565;
	name 979021;
	to node978941979021;
	length 214;
	configuration 985207line_configuration65101;
};

object overhead_line {
	phases ACBN;
	from node978941979021;
	name 978941;
	to node979028978941;
	length 214;
	configuration 985207line_configuration65101;
};

object overhead_line {
	phases ACBN;
	from node979028978941;
	name 979028;
	to node1806-29-097979028;
	length 210;
	configuration 985207line_configuration65101;
};

object transformer {
	phases BS;
	from node1806-29-097979028;
	name 1806-29-097;
	to nodeS1806-29-0081806-29-097;
	configuration T10633transformer_configuration360401;
};

object triplex_node {
	phases BS;
	power_12 100;
	name S1806-29-008;
	parent nodeS1806-29-0081806-29-097;
	nominal_voltage 120;
};

object overhead_line {
	phases ACBN;
	from node1806-29-097979028;
	name 979029;
	to node1806-29-098979029;
	length 300;
	configuration 985207line_configuration65101;
};

object transformer {
	phases BS;
	from node1806-29-098979029;
	name 1806-29-098;
	to nodeS1806-28-0141806-29-098;
	configuration T10633transformer_configuration360401;
};

object triplex_node {
	phases BS;
	power_12 100;
	name S1806-28-014;
	parent nodeS1806-28-0141806-29-098;
	nominal_voltage 120;
};

object overhead_line {
	phases ACBN;
	from node1806-29-098979029;
	name 979030;
	to node1806-29-099979030;
	length 310;
	configuration 985207line_configuration65101;
};

object transformer {
	phases BS;
	from node1806-29-099979030;
	name 1806-29-099;
	to nodeS1806-29-0101806-29-099;
	configuration T10633transformer_configuration360401;
};

object triplex_node {
	phases BS;
	power_12 100;
	name S1806-29-010;
	parent nodeS1806-29-0101806-29-099;
	nominal_voltage 120;
};

object overhead_line {
	phases ACBN;
	from node1806-29-099979030;
	name 979031;
	to node979032979031;
	length 174;
	configuration 985207line_configuration65101;
};

object overhead_line {
	phases ACBN;
	from node979032979031;
	name 979032;
	to node979035979032;
	length 174;
	configuration 985207line_configuration65101;
};

object overhead_line {
	phases ACBN;
	from node979035979032;
	name 979035;
	to node1806-20-183979035;
	length 275;
	configuration 985207line_configuration65101;
};

object transformer {
	phases AS;
	from node1806-20-183979035;
	name 1806-20-183;
	to nodeS1806-21-0111806-20-183;
	configuration T10633transformer_configuration360401;
};

object triplex_node {
	phases AS;
	power_12 100;
	name S1806-21-011;
	parent nodeS1806-21-0111806-20-183;
	nominal_voltage 120;
};

object triplex_node {
	phases AS;
	power_12 100;
	name S1806-21-004;
	parent nodeS1806-21-0111806-20-183;
	nominal_voltage 120;
};

object overhead_line {
	phases ACBN;
	from node1806-20-183979035;
	name 979036;
	to node978942979036;
	length 213;
	configuration 985207line_configuration65101;
};

object overhead_line {
	phases ACBN;
	from node978942979036;
	name 978942;
	to node978943978942;
	length 212;
	configuration 985207line_configuration65101;
};

object overhead_line {
	phases ACBN;
	from node978943978942;
	name 978943;
	to node978944978943;
	length 212;
	configuration 985207line_configuration65101;
};

object overhead_line {
	phases ACBN;
	from node978944978943;
	name 978944;
	to node978947978944;
	length 296;
	configuration 985207line_configuration65101;
};

object overhead_line {
	phases ACBN;
	from node978947978944;
	name 978947;
	to node978948978947;
	length 170;
	configuration 985207line_configuration65101;
};

object overhead_line {
	phases ACBN;
	from node978948978947;
	name 978948;
	to node1806-20-189978948;
	length 168;
	configuration 985207line_configuration65101;
};

object transformer {
	phases BS;
	from node1806-20-189978948;
	name 1806-20-189;
	to nodeS1806-21-0201806-20-189;
	configuration T10633transformer_configuration360401;
};

object triplex_node {
	phases BS;
	power_12 100;
	name S1806-21-020;
	parent nodeS1806-21-0201806-20-189;
	nominal_voltage 120;
};

object overhead_line {
	phases ACBN;
	from node1806-20-189978948;
	name 978949;
	to node979053978949;
	length 318;
	configuration 985207line_configuration65101;
};

object underground_line {
	phases BN;
	from node979053978949;
	name 979053;
	to nodeF28665x1979053;
	length 25;
	configuration 924103line_configuration196601;
};

object fuse {
	phases B;
	from nodeF28665x1979053;
	name F28665x1;
	current_limit 9999.0 A;
	to node979054F28665x1;
};

object underground_line {
	phases B;
	from node979054F28665x1;
	name 979054;
	to node978951979054;
	length 25;
	configuration 924103line_configuration196601;
};

object underground_line {
	phases B;
	from node978951979054;
	name 978951;
	to nodeT28667978951;
	length 20;
	configuration 924103line_configuration196601;
};

object transformer {
	phases BS;
	from nodeT28667978951;
	name T28667;
	to nodeS1806-21-007T28667;
	configuration T10633transformer_configuration360401;
};

object triplex_node {
	phases BS;
	power_12 100;
	name S1806-21-007;
	parent nodeS1806-21-007T28667;
	nominal_voltage 120;
};

object underground_line {
	phases B;
	from node978951979054;
	name 841700;
	to nodeT28669841700;
	length 678;
	configuration 924103line_configuration196601;
};

object transformer {
	phases BS;
	from nodeT28669841700;
	name T28669;
	to nodeS1806-21-024T28669;
	configuration T10633transformer_configuration360401;
};

object triplex_node {
	phases BS;
	power_12 100;
	name S1806-21-024;
	parent nodeS1806-21-024T28669;
	nominal_voltage 120;
};

object triplex_node {
	phases BS;
	power_12 100;
	name S1806-21-022;
	parent nodeS1806-21-024T28669;
	nominal_voltage 120;
};

object underground_line {
	phases B;
	from node978951979054;
	name 841697;
	to nodeT28668841697;
	length 599;
	configuration 924103line_configuration196601;
};

object transformer {
	phases BS;
	from nodeT28668841697;
	name T28668;
	to nodeS1806-20-048T28668;
	configuration T10633transformer_configuration360401;
};

object triplex_node {
	phases BS;
	power_12 100;
	name S1806-20-048;
	parent nodeS1806-20-048T28668;
	nominal_voltage 120;
};

object overhead_line {
	phases ACBN;
	from node979053978949;
	name 978952;
	to node978953978952;
	length 215;
	configuration 985207line_configuration65101;
};

object overhead_line {
	phases ACBN;
	from node978953978952;
	name 978953;
	to node978954978953;
	length 215;
	configuration 985207line_configuration65101;
};

object overhead_line {
	phases ACBN;
	from node978954978953;
	name 978954;
	to node1806-20-193978954;
	length 215;
	configuration 985207line_configuration65101;
};

object transformer {
	phases BS;
	from node1806-20-193978954;
	name 1806-20-193;
	to nodeS1806-21-0051806-20-193;
	configuration T10633transformer_configuration360401;
};

object triplex_node {
	phases BS;
	power_12 100;
	name S1806-21-005;
	parent nodeS1806-21-0051806-20-193;
	nominal_voltage 120;
};

object triplex_node {
	phases BS;
	power_12 100;
	name S1806-20-002;
	parent nodeS1806-21-0051806-20-193;
	nominal_voltage 120;
};

object overhead_line {
	phases ACBN;
	from node1806-20-193978954;
	name 978955;
	to node978956978955;
	length 275;
	configuration 985207line_configuration65101;
};

object overhead_line {
	phases ACBN;
	from node978956978955;
	name 978956;
	to node978957978956;
	length 275;
	configuration 985207line_configuration65101;
};

object overhead_line {
	phases ACBN;
	from node978957978956;
	name 978957;
	to node978958978957;
	length 275;
	configuration 985207line_configuration65101;
};

object overhead_line {
	phases ACBN;
	from node978958978957;
	name 978958;
	to node978959978958;
	length 241;
	configuration 985207line_configuration65101;
};

object overhead_line {
	phases ACBN;
	from node978959978958;
	name 978959;
	to node978960978959;
	length 241;
	configuration 985207line_configuration65101;
};

object overhead_line {
	phases ACBN;
	from node978960978959;
	name 978960;
	to node978963978960;
	length 240;
	configuration 985207line_configuration65101;
};

object overhead_line {
	phases ACBN;
	from node978963978960;
	name 978963;
	to node978965978963;
	length 141;
	configuration 985207line_configuration65101;
};

object overhead_line {
	phases ACBN;
	from node978965978963;
	name 978965;
	to node978966978965;
	length 247;
	configuration 985207line_configuration65101;
};

object overhead_line {
	phases ACBN;
	from node978966978965;
	name 978966;
	to node978967978966;
	length 247;
	configuration 985207line_configuration65101;
};

object overhead_line {
	phases ACBN;
	from node978967978966;
	name 978967;
	to node978968978967;
	length 269;
	configuration 985207line_configuration65101;
};

object overhead_line {
	phases ACBN;
	from node978968978967;
	name 978968;
	to node978970978968;
	length 275;
	configuration 985207line_configuration65101;
};

object overhead_line {
	phases ACBN;
	from node978970978968;
	name 978970;
	to node979057978970;
	length 267;
	configuration 985207line_configuration65101;
};

object underground_line {
	phases BN;
	from node979057978970;
	name 979057;
	to nodeR6914x1979057;
	length 45;
	configuration 924103line_configuration196601;
};

object fuse {
	phases B;
	from nodeR6914x1979057;
	name R6914x1;
	current_limit 9999.0 A;
	to node978971R6914x1;
};

object underground_line {
	phases B;
	from node978971R6914x1;
	name 978971;
	to node921593978971;
	length 45;
	configuration 924103line_configuration196601;
};

object underground_line {
	phases B;
	from node921593978971;
	name 921593;
	to node921816921593;
	length 1504;
	configuration 924103line_configuration196601;
};

object underground_line {
	phases B;
	from node921816921593;
	name 921816;
	to node921817921816;
	length 1354;
	configuration 924103line_configuration196601;
};

object underground_line {
	phases B;
	from node921817921816;
	name 921817;
	to nodeT10196921817;
	length 226;
	configuration 924103line_configuration196601;
};

object transformer {
	phases BS;
	from nodeT10196921817;
	name T10196;
	to nodeS1806-16-004T10196;
	configuration T10633transformer_configuration360401;
};

object triplex_node {
	phases BS;
	power_12 100;
	name S1806-16-004;
	parent nodeS1806-16-004T10196;
	nominal_voltage 120;
};

object underground_line {
	phases B;
	from node921817921816;
	name 839719;
	to node924106839719;
	length 1116;
	configuration 924103line_configuration196601;
};

object underground_line {
	phases B;
	from node924106839719;
	name 924106;
	to nodeT12137924106;
	length 1740;
	configuration 924103line_configuration196601;
};

object transformer {
	phases BS;
	from nodeT12137924106;
	name T12137;
	to nodeS1806-16-013T12137;
	configuration T10633transformer_configuration360401;
};

object triplex_node {
	phases BS;
	power_12 100;
	name S1806-16-013;
	parent nodeS1806-16-013T12137;
	nominal_voltage 120;
};

object underground_line {
	phases B;
	from node924106839719;
	name 917611;
	to node917613917611;
	length 1412;
	configuration 924103line_configuration196601;
};

object underground_line {
	phases B;
	from node917613917611;
	name 917613;
	to node930182917613;
	length 346;
	configuration 924103line_configuration196601;
};

object underground_line {
	phases B;
	from node930182917613;
	name 930182;
	to node931498930182;
	length 1015;
	configuration 924103line_configuration196601;
};

object underground_line {
	phases B;
	from node931498930182;
	name 931498;
	to nodeT14068931498;
	length 364;
	configuration 924103line_configuration196601;
};

object transformer {
	phases BS;
	from nodeT14068931498;
	name T14068;
	to nodeS1806-22-047T14068;
	configuration T10633transformer_configuration360401;
};

object triplex_node {
	phases BS;
	power_12 100;
	name S1806-22-047;
	parent nodeS1806-22-047T14068;
	nominal_voltage 120;
};

object underground_line {
	phases B;
	from node930182917613;
	name 929367;
	to node929369929367;
	length 510;
	configuration 924103line_configuration196601;
};

object underground_line {
	phases B;
	from node929369929367;
	name 929369;
	to node929370929369;
	length 225;
	configuration 924103line_configuration196601;
};

object underground_line {
	phases B;
	from node929370929369;
	name 929370;
	to node929374929370;
	length 725;
	configuration 924103line_configuration196601;
};

object underground_line {
	phases B;
	from node929374929370;
	name 929374;
	to node841970929374;
	length 30;
	configuration 924103line_configuration196601;
};

object overhead_line {
	phases BN;
	from node841970929374;
	name 841970;
	to node1806-22-025841970;
	length 295;
	configuration 841870line_configuration32601;
};

object transformer {
	phases BS;
	from node1806-22-025841970;
	name 1806-22-025;
	to nodeS1806-22-0181806-22-025;
	configuration T10633transformer_configuration360401;
};

object triplex_node {
	phases BS;
	power_12 100;
	name S1806-22-018;
	parent nodeS1806-22-0181806-22-025;
	nominal_voltage 120;
};

object triplex_node {
	phases BS;
	power_12 100;
	name S1806-22-012;
	parent nodeS1806-22-0181806-22-025;
	nominal_voltage 120;
};

object overhead_line {
	phases BN;
	from node1806-22-025841970;
	name 921565;
	to node1806-22-031921565;
	length 175;
	configuration 841870line_configuration32601;
};

object transformer {
	phases BS;
	from node1806-22-031921565;
	name 1806-22-031;
	to nodeS1806-22-0161806-22-031;
	configuration T10633transformer_configuration360401;
};

object triplex_node {
	phases BS;
	power_12 100;
	name S1806-22-016;
	parent nodeS1806-22-0161806-22-031;
	nominal_voltage 120;
};

object overhead_line {
	phases BN;
	from node1806-22-031921565;
	name 841966;
	to node1806-22-024841966;
	length 283;
	configuration 841870line_configuration32601;
};

object transformer {
	phases BS;
	from node1806-22-024841966;
	name 1806-22-024;
	to nodeS1806-22-0051806-22-024;
	configuration T10633transformer_configuration360401;
};

object triplex_node {
	phases BS;
	power_12 100;
	name S1806-22-005;
	parent nodeS1806-22-0051806-22-024;
	nominal_voltage 120;
};

object overhead_line {
	phases BN;
	from node1806-22-024841966;
	name 921568;
	to node1806-22-032921568;
	length 283;
	configuration 841870line_configuration32601;
};

object transformer {
	phases BS;
	from node1806-22-032921568;
	name 1806-22-032;
	to nodeS1806-22-0091806-22-032;
	configuration T10633transformer_configuration360401;
};

object triplex_node {
	phases BS;
	power_12 100;
	name S1806-22-009;
	parent nodeS1806-22-0091806-22-032;
	nominal_voltage 120;
};

object overhead_line {
	phases BN;
	from node1806-22-032921568;
	name 917662;
	to node1806-22-028917662;
	length 153;
	configuration 841870line_configuration32601;
};

object transformer {
	phases BS;
	from node1806-22-028917662;
	name 1806-22-028;
	to nodeS1806-22-0461806-22-028;
	configuration T10633transformer_configuration360401;
};

object triplex_node {
	phases BS;
	power_12 100;
	name S1806-22-046;
	parent nodeS1806-22-0461806-22-028;
	nominal_voltage 120;
};

object overhead_line {
	phases BN;
	from node1806-22-028917662;
	name 921570;
	to node1806-22-033921570;
	length 137;
	configuration 841870line_configuration32601;
};

object transformer {
	phases BS;
	from node1806-22-033921570;
	name 1806-22-033;
	to nodeS1806-22-0031806-22-033;
	configuration T10633transformer_configuration360401;
};

object triplex_node {
	phases BS;
	power_12 100;
	name S1806-22-003;
	parent nodeS1806-22-0031806-22-033;
	nominal_voltage 120;
};

object overhead_line {
	phases BN;
	from node1806-22-033921570;
	name 841964;
	to node1806-22-023841964;
	length 127;
	configuration 841870line_configuration32601;
};

object transformer {
	phases BS;
	from node1806-22-023841964;
	name 1806-22-023;
	to nodeS1806-22-0431806-22-023;
	configuration T10633transformer_configuration360401;
};

object triplex_node {
	phases BS;
	power_12 100;
	name S1806-22-043;
	parent nodeS1806-22-0431806-22-023;
	nominal_voltage 120;
};

object triplex_node {
	phases BS;
	power_12 100;
	name S1806-22-002;
	parent nodeS1806-22-0431806-22-023;
	nominal_voltage 120;
};

object overhead_line {
	phases BN;
	from node1806-22-023841964;
	name 841959;
	to node1806-22-022841959;
	length 344;
	configuration 841870line_configuration32601;
};

object transformer {
	phases BS;
	from node1806-22-022841959;
	name 1806-22-022;
	to nodeS1806-22-0041806-22-022;
	configuration T10633transformer_configuration360401;
};

object triplex_node {
	phases BS;
	power_12 100;
	name S1806-22-004;
	parent nodeS1806-22-0041806-22-022;
	nominal_voltage 120;
};

object underground_line {
	phases BN;
	from node1806-22-022841959;
	name 841956;
	to nodeF21666x1841956;
	length 77;
	configuration 924103line_configuration196601;
};

object fuse {
	phases B;
	from nodeF21666x1841956;
	name F21666x1;
	current_limit 9999.0 A;
	to node841957F21666x1;
};

object underground_line {
	phases B;
	from node841957F21666x1;
	name 841957;
	to nodeT18699841957;
	length 1058;
	configuration 924103line_configuration196601;
};

object transformer {
	phases BS;
	from nodeT18699841957;
	name T18699;
	to nodeS1806-21-015T18699;
	configuration T10633transformer_configuration360401;
};

object triplex_node {
	phases BS;
	power_12 100;
	name S1806-21-015;
	parent nodeS1806-21-015T18699;
	nominal_voltage 120;
};

object overhead_line {
	phases BN;
	from node1806-22-022841959;
	name 841955;
	to node1806-22-021841955;
	length 191;
	configuration 841870line_configuration32601;
};

object transformer {
	phases BS;
	from node1806-22-021841955;
	name 1806-22-021;
	to nodeS1806-22-0271806-22-021;
	configuration T10633transformer_configuration360401;
};

object triplex_node {
	phases BS;
	power_12 100;
	name S1806-22-027;
	parent nodeS1806-22-0271806-22-021;
	nominal_voltage 120;
};

object overhead_line {
	phases BN;
	from node1806-22-021841955;
	name 841953;
	to node1806-22-020841953;
	length 253;
	configuration 841870line_configuration32601;
};

object transformer {
	phases BS;
	from node1806-22-020841953;
	name 1806-22-020;
	to nodeS1806-22-0251806-22-020;