clock {
	timezone PST+8PDT;
	starttime '2000-01-01 00:00:00';
	stoptime '2000-01-01 01:00:00';
};

#set minimum_timestep=60;
#set profiler=1;
#set relax_naming_rules=1;
module generators;
module tape;
module residential {
	implicit_enduses NONE;
};

module powerflow {
	solver_method NR;
	NR_iteration_limit 50;
};

object overhead_line_conductor {
	resistance 0.214101;
	name ACSR_477;
	geometric_mean_radius 0.026300;
};

object overhead_line_conductor {
	resistance 0.072701;
	name CLP_1500_33KV;
	geometric_mean_radius 0.044183;
};

object overhead_line_conductor {
	resistance 9.280701;
	name CU_N_#12;
	geometric_mean_radius 0.002623;
};

object overhead_line_conductor {
	resistance 0.138967;
	name CLP_750_33KV;
	geometric_mean_radius 0.031137;
};

object overhead_line_conductor {
	resistance 0.000000;
	name ACSR_LINNET_336_4_KCMIL;
	geometric_mean_radius 0.024400;
};

object overhead_line_conductor {
	resistance 14.595001;
	name CU_N_#14;
	geometric_mean_radius 0.002083;
};

object overhead_line_conductor {
	resistance 2.459000;
	name ACSR_#4;
	geometric_mean_radius 0.003300;
};

object overhead_line_conductor {
	resistance 0.312013;
	name CLP_350_5_12_16KV;
	geometric_mean_radius 0.021152;
};

object overhead_line_conductor {
	resistance 0.000000;
	name ACSR_#6;
	geometric_mean_radius 0.002400;
};

object overhead_line_conductor {
	resistance 1.583001;
	name ACSR_#2;
	geometric_mean_radius 0.004600;
};

object overhead_line_conductor {
	resistance 1.034000;
	name ACSR_1_0;
	geometric_mean_radius 0.007100;
};

object overhead_line_conductor {
	resistance 0.485579;
	name CLP_4_0_33KV;
	geometric_mean_radius 0.016171;
};

object overhead_line_conductor {
	resistance 0.975000;
	name CU_#2;
	geometric_mean_radius 0.008830;
};

object overhead_line_conductor {
	resistance 0.158100;
	name ACSR_653;
	geometric_mean_radius 0.030842;
};

object overhead_line_conductor {
	resistance 1.543374;
	name CLP_#2_5_12_16KV;
	geometric_mean_radius 0.008561;
};

object overhead_line_conductor {
	resistance 0.000000;
	name ACSR_PENGUIN_4_0_AWG;
	geometric_mean_radius 0.008140;
};

object overhead_line_conductor {
	resistance 0.770449;
	name CU_#1;
	geometric_mean_radius 0.009919;
};

object overhead_line_conductor {
	resistance 0.105560;
	name CLP_1000_12_16KV;
	geometric_mean_radius 0.035930;
};

object overhead_line_conductor {
	resistance 1.549999;
	name CU_#4;
	geometric_mean_radius 0.007000;
};

object overhead_line_conductor {
	resistance 3.840901;
	name CU_#8;
	geometric_mean_radius 0.004170;
};

object overhead_line_conductor {
	resistance 2.400000;
	name CW_6A_COPPERWELD;
	geometric_mean_radius 0.004790;
};

object overhead_line_conductor {
	resistance 2.417000;
	name CU_#6;
	geometric_mean_radius 0.005260;
};

object overhead_line_conductor {
	resistance 0.486600;
	name CU_2_0;
	geometric_mean_radius 0.012510;
};

object overhead_line_conductor {
	resistance 2.010000;
	name AW_3C_7#6_ALUMOWELD;
	geometric_mean_radius 0.000018;
};

object overhead_line_conductor {
	resistance 0.573000;
	name ACSR_4_0;
	geometric_mean_radius 0.010500;
};

object overhead_line_conductor {
	resistance 0.843000;
	name ACSR_2_0;
	geometric_mean_radius 0.007700;
};

object overhead_line_conductor {
	resistance 0.386980;
	name CU_3_0;
	geometric_mean_radius 0.014040;
};

object overhead_line_conductor {
	resistance 0.974947;
	name CLP_1_0_5_12_16KV;
	geometric_mean_radius 0.011433;
};

object overhead_line_conductor {
	resistance 0.306701;
	name CU_4_0;
	geometric_mean_radius 0.015770;
};

object overhead_line_conductor {
	resistance 0.613701;
	name CU_1_0;
	geometric_mean_radius 0.011140;
};

object overhead_line_conductor {
	resistance 0.302700;
	name ACSR_336;
	geometric_mean_radius 0.022100;
};

object overhead_line_conductor {
	resistance 0.000000;
	name NONE;
	geometric_mean_radius 0.028999;
};

object overhead_line_conductor {
	resistance 0.138967;
	name CLP_750_5_12_16KV;
	geometric_mean_radius 0.031137;
};

object overhead_line_conductor {
	resistance 0.196018;
	name DEFAULT;
	geometric_mean_radius 0.028999;
};

object overhead_line_conductor {
	resistance 0.108800;
	name ACSR_954;
	geometric_mean_radius 0.038083;
};

object overhead_line_conductor {
	resistance 0.303039;
	name x336_TEST;
	geometric_mean_radius 0.024000;
};

object overhead_line_conductor {
	resistance 3.820000;
	name CW_8A_COPPERWELD;
	geometric_mean_radius 0.003940;
};

object underground_line_conductor {
	name CLP_3C_#2_5_12_16KVcond;
	conductor_resistance 1.1096490000000001e+00;
	neutral_gmr 3.894638;
	outer_diameter 2.2193000000000001e+01;
	neutral_strands 7;
	neutral_resistance 14.872;
	neutral_diameter 1.1683914000000000e+01;
	conductor_diameter 2.7000000000000000e+01;
	conductor_gmr 9.0;
};

object underground_line_conductor {
	name CLP_3C_750_5_12_16KVcond;
	conductor_resistance 1.2452700000000000e-01;
	neutral_gmr 8.19573333333;
	outer_diameter 4.1878000000000000e+01;
	neutral_strands 7;
	neutral_resistance 14.872;
	neutral_diameter 2.4587199999999999e+01;
	conductor_diameter 2.7000000000000000e+01;
	conductor_gmr 9.0;
};

object underground_line_conductor {
	name JCN_3C_#2_5_12_16KVcond;
	conductor_resistance 1.1103950000000000e+00;
	neutral_gmr 3.894638;
	outer_diameter 2.2193000000000001e+01;
	neutral_strands 7;
	neutral_resistance 14.872;
	neutral_diameter 1.1683914000000000e+01;
	conductor_diameter 2.7000000000000000e+01;
	conductor_gmr 9.0;
};

object underground_line_conductor {
	name JCN_1C_#2_5_12_16KVcond;
	conductor_resistance 1.2968740000000001e+00;
	neutral_gmr 3.894638;
	outer_diameter 2.2193000000000001e+01;
	neutral_strands 7;
	neutral_resistance 14.872;
	neutral_diameter 1.1683914000000000e+01;
	conductor_diameter 2.7000000000000000e+01;
	conductor_gmr 9.0;
};

object underground_line_conductor {
	name JCN_3C_1_0_5_12_16KVcond;
	conductor_resistance 7.0546100000000000e-01;
	neutral_gmr 3.894638;
	outer_diameter 2.4225000000000001e+01;
	neutral_strands 7;
	neutral_resistance 14.872;
	neutral_diameter 1.1683914000000000e+01;
	conductor_diameter 2.7000000000000000e+01;
	conductor_gmr 9.0;
};

object underground_line_conductor {
	name DEFAULTcond;
	conductor_resistance 8.8234999999999994e-02;
	neutral_gmr 7.26433333333;
	outer_diameter 2.9792999999999999e+01;
	neutral_strands 7;
	neutral_resistance 14.872;
	neutral_diameter 2.1792999999999999e+01;
	conductor_diameter 2.7000000000000000e+01;
	conductor_gmr 9.0;
};

object underground_line_conductor {
	name CLP_3C_350_5_12_16KVcond;
	conductor_resistance 2.2119600000000000e-01;
	neutral_gmr 5.59646666667;
	outer_diameter 3.2225999999999999e+01;
	neutral_strands 7;
	neutral_resistance 14.872;
	neutral_diameter 1.6789400000000001e+01;
	conductor_diameter 2.7000000000000000e+01;
	conductor_gmr 9.0;
};

object underground_line_conductor {
	name CLP_1C_350_5_12_16KVcond;
	conductor_resistance 5.6880200000000003e-01;
	neutral_gmr 5.68555333333;
	outer_diameter 3.2225999999999999e+01;
	neutral_strands 7;
	neutral_resistance 14.872;
	neutral_diameter 1.7056660000000001e+01;
	conductor_diameter 2.7000000000000000e+01;
	conductor_gmr 9.0;
};

object underground_line_conductor {
	name BUScond;
	conductor_resistance 0.0000000000000000e+00;
	neutral_gmr 3.894638;
	outer_diameter 2.2193000000000001e+01;
	neutral_strands 7;
	neutral_resistance 14.872;
	neutral_diameter 1.1683914000000000e+01;
	conductor_diameter 2.7000000000000000e+01;
	conductor_gmr 9.0;
};

object underground_line_conductor {
	name CLP_3C_1000_5_12_16KVcond;
	conductor_resistance 9.5686999999999994e-02;
	neutral_gmr 9.61033933333;
	outer_diameter 4.6450000000000003e+01;
	neutral_strands 16;
	neutral_resistance 14.872;
	neutral_diameter 2.8831018000000000e+01;
	conductor_diameter 2.7000000000000000e+01;
	conductor_gmr 9.0;
};

object underground_line_conductor {
	name JCN_2C_#2_5_12_16KVcond;
	conductor_resistance 8.7740700000000005e-01;
	neutral_gmr 3.894638;
	outer_diameter 2.2193000000000001e+01;
	neutral_strands 7;
	neutral_resistance 14.872;
	neutral_diameter 1.1683914000000000e+01;
	conductor_diameter 2.7000000000000000e+01;
	conductor_gmr 9.0;
};

object underground_line_conductor {
	name JCN_3C_1000_5_12_16KVcond;
	conductor_resistance 9.7112000000000004e-02;
	neutral_gmr 9.45726666667;
	outer_diameter 4.6450000000000003e+01;
	neutral_strands 7;
	neutral_resistance 14.872;
	neutral_diameter 2.8371800000000000e+01;
	conductor_diameter 2.7000000000000000e+01;
	conductor_gmr 9.0;
};

object underground_line_conductor {
	name CLP_2C_#2_5_12_16KVcond;
	conductor_resistance 8.7740700000000005e-01;
	neutral_gmr 2.47577533333;
	outer_diameter 2.2193000000000001e+01;
	neutral_strands 7;
	neutral_resistance 14.872;
	neutral_diameter 7.4273259999999999e+00;
	conductor_diameter 2.7000000000000000e+01;
	conductor_gmr 9.0;
};

object underground_line_conductor {
	name CLP_3C_1_0_5_12_16KVcond;
	conductor_resistance 7.0483700000000005e-01;
	neutral_gmr 3.894638;
	outer_diameter 2.4225000000000001e+01;
	neutral_strands 7;
	neutral_resistance 14.872;
	neutral_diameter 1.1683914000000000e+01;
	conductor_diameter 2.7000000000000000e+01;
	conductor_gmr 9.0;
};

object underground_line_conductor {
	name CLP_1C_#2_5_12_16KVcond;
	conductor_resistance 1.2968740000000001e+00;
	neutral_gmr 2.47577533333;
	outer_diameter 2.2193000000000001e+01;
	neutral_strands 7;
	neutral_resistance 14.872;
	neutral_diameter 7.4273259999999999e+00;
	conductor_diameter 2.7000000000000000e+01;
	conductor_gmr 9.0;
};

object line_spacing {
	distance_AN 3.000000;
	name x3W_1N_12_16KVohsps;
	distance_CN 6.330000;
	distance_BC 3.000000;
	distance_AB 6.330000;
	distance_BN 3.330000;
	distance_AC 9.330000;
};

object line_spacing {
	distance_AN 3.000000;
	name STANDARD_4Wohsps;
	distance_CN 6.330000;
	distance_BC 3.000000;
	distance_AB 6.330000;
	distance_BN 3.330000;
	distance_AC 9.330000;
};

object line_spacing {
	distance_AN 12.300000;
	name DEFAULTohsps;
	distance_CN 6.300000;
	distance_BC 9.300000;
	distance_AB 9.300000;
	distance_BN 3.000000;
	distance_AC 18.600000;
};

object line_spacing {
	distance_AN 3.000000;
	name STANDARD_3W_1N;
	distance_CN 6.330000;
	distance_BC 3.000000;
	distance_AB 6.330000;
	distance_BN 3.330000;
	distance_AC 9.330000;
};

object line_spacing {
	distance_AN 40.000000;
	name x3W_12_16KVohsps;
	distance_CN 41.073701;
	distance_BC 3.000000;
	distance_AB 6.330000;
	distance_BN 40.497764;
	distance_AC 9.330000;
};

object line_spacing {
	distance_AN 40.000000;
	name STANDARD_3Wohsps;
	distance_CN 41.073701;
	distance_BC 3.000000;
	distance_AB 6.330000;
	distance_BN 40.497764;
	distance_AC 9.330000;
};

object line_configuration {
	name DEFAULTconf;
	spacing DEFAULTohsps;
	conductor_N ACSR_#6;
	conductor_A ACSR_#6;
	conductor_C ACSR_#6;
	conductor_B ACSR_#6;
};

object line_configuration {
	name ACSR_3C_336conf;
	spacing STANDARD_3Wohsps;
	conductor_N NONE;
	conductor_A ACSR_336;
	conductor_C ACSR_336;
	conductor_B ACSR_336;
};

object line_configuration {
	name ACSR_3C_653_653Nconf;
	spacing STANDARD_4Wohsps;
	conductor_N ACSR_653;
	conductor_A ACSR_653;
	conductor_C ACSR_653;
	conductor_B ACSR_653;
};

object line_configuration {
	name CU_3C_#4conf;
	spacing STANDARD_3Wohsps;
	conductor_N NONE;
	conductor_A CU_#4;
	conductor_C CU_#4;
	conductor_B CU_#4;
};

object line_configuration {
	name ACSR_3C_336_336Nconf;
	spacing STANDARD_4Wohsps;
	conductor_N ACSR_336;
	conductor_A ACSR_336;
	conductor_C ACSR_336;
	conductor_B ACSR_336;
};

object line_configuration {
	name ACSR_3C_653conf;
	spacing STANDARD_3Wohsps;
	conductor_N NONE;
	conductor_A ACSR_653;
	conductor_C ACSR_653;
	conductor_B ACSR_653;
};

object line_spacing {
	distance_BC 0.5;
	name CLP_1C_350_5_12_16KVsps;
	distance_AB 0.05;
	distance_AC 1.0;
};

object line_spacing {
	distance_BC 0.5;
	name JCN_3C_#2_5_12_16KVsps;
	distance_AB 0.05;
	distance_AC 1.0;
};

object line_spacing {
	distance_BC 0.5;
	name JCN_1C_#2_5_12_16KVsps;
	distance_AB 0.05;
	distance_AC 1.0;
};

object line_spacing {
	distance_BC 0.5;
	name CLP_2C_#2_5_12_16KVsps;
	distance_AB 0.05;
	distance_AC 1.0;
};

object line_spacing {
	distance_BC 0.5;
	name JCN_3C_1_0_5_12_16KVsps;
	distance_AB 0.05;
	distance_AC 1.0;
};

object line_spacing {
	distance_BC 0.5;
	name CLP_3C_350_5_12_16KVsps;
	distance_AB 0.05;
	distance_AC 1.0;
};

object line_spacing {
	distance_BC 0.5;
	name DEFAULTsps;
	distance_AB 0.05;
	distance_AC 1.0;
};

object line_spacing {
	distance_BC 0.5;
	name CLP_3C_1000_5_12_16KVsps;
	distance_AB 0.05;
	distance_AC 1.0;
};

object line_spacing {
	distance_BC 0.5;
	name CLP_3C_#2_5_12_16KVsps;
	distance_AB 0.05;
	distance_AC 1.0;
};

object line_spacing {
	distance_BC 0.5;
	name CLP_3C_750_5_12_16KVsps;
	distance_AB 0.05;
	distance_AC 1.0;
};

object line_spacing {
	distance_BC 0.5;
	name BUSsps;
	distance_AB 0.05;
	distance_AC 1.0;
};

object line_spacing {
	distance_BC 0.5;
	name CLP_1C_#2_5_12_16KVsps;
	distance_AB 0.05;
	distance_AC 1.0;
};

object line_spacing {
	distance_BC 0.5;
	name JCN_3C_1000_5_12_16KVsps;
	distance_AB 0.05;
	distance_AC 1.0;
};

object line_spacing {
	distance_BC 0.5;
	name JCN_2C_#2_5_12_16KVsps;
	distance_AB 0.05;
	distance_AC 1.0;
};

object line_spacing {
	distance_BC 0.5;
	name CLP_3C_1_0_5_12_16KVsps;
	distance_AB 0.05;
	distance_AC 1.0;
};

object line_configuration {
	name olc0;
	spacing STANDARD_3W_1N;
	conductor_A ACSR_336;
	conductor_C ACSR_336;
	conductor_B ACSR_336;
};

object line_configuration {
	name olc1;
	spacing STANDARD_3W_1N;
	conductor_N ACSR_336;
	conductor_A ACSR_336;
	conductor_C ACSR_336;
	conductor_B ACSR_336;
};

object line_configuration {
	z23 0.000000-0.000000j;
	name JCN_1C_#2_5_12_16KVphA;
	z21 0.000000+0.000000j;
	z33 2.087116+0.822256j;
	z12 0.000000-0.000000j;
	spacing JCN_1C_#2_5_12_16KVsps;
	z13 0.000000+0.000000j;
	z11 2.087116+0.822256j;
	z32 -0.000000+0.000000j;
	z31 0.000000+0.000000j;
	conductor_A JCN_1C_#2_5_12_16KVcond;
	z22 2.087116+0.822256j;
};

object line_configuration {
	z23 0.226568+0.018284j;
	name CLP_3C_750_5_12_16KVphABC;
	z21 0.226568+0.018284j;
	z33 0.426975+0.204706j;
	z12 0.226568+0.018284j;
	z31 0.226568+0.018284j;
	spacing CLP_3C_750_5_12_16KVsps;
	z13 0.226568+0.018284j;
	z11 0.426975+0.204706j;
	z32 0.226568+0.018284j;
	conductor_B CLP_3C_750_5_12_16KVcond;
	conductor_A CLP_3C_750_5_12_16KVcond;
	conductor_C CLP_3C_750_5_12_16KVcond;
	z22 0.426975+0.204706j;
};

object line_configuration {
	z23 0.225364+0.015992j;
	name JCN_3C_1000_5_12_16KVphABC;
	z21 0.225364+0.015992j;
	z33 0.381651+0.205829j;
	z12 0.225364+0.015992j;
	z31 0.225364+0.015992j;
	spacing JCN_3C_1000_5_12_16KVsps;
	z13 0.225364+0.015992j;
	z11 0.381651+0.205829j;
	z32 0.225364+0.015992j;
	conductor_B JCN_3C_1000_5_12_16KVcond;
	conductor_A JCN_3C_1000_5_12_16KVcond;
	conductor_C JCN_3C_1000_5_12_16KVcond;
	z22 0.381651+0.205829j;
};

object line_configuration {
	z23 0.045000-0.024666j;
	name DEFAULTphA;
	z21 0.045000-0.024666j;
	z33 0.187000+0.121333j;
	z12 0.045000-0.024666j;
	spacing DEFAULTsps;
	z13 0.045000-0.024666j;
	z11 0.187000+0.121333j;
	z32 0.045000-0.024666j;
	z31 0.045000-0.024666j;
	conductor_A DEFAULTcond;
	z22 0.187000+0.121333j;
};

object line_configuration {
	z23 0.000000-0.000000j;
	name CLP_1C_#2_5_12_16KVphA;
	z21 0.000000+0.000000j;
	z33 2.087116+0.822256j;
	z12 0.000000-0.000000j;
	spacing CLP_1C_#2_5_12_16KVsps;
	z13 0.000000+0.000000j;
	z11 2.087116+0.822256j;
	z32 -0.000000+0.000000j;
	z31 0.000000+0.000000j;
	conductor_A CLP_1C_#2_5_12_16KVcond;
	z22 2.087116+0.822256j;
};

object line_configuration {
	z23 0.469461+0.176776j;
	name CLP_3C_#2_5_12_16KVphABC;
	z21 0.469461+0.176776j;
	z33 2.255268+0.452050j;
	z12 0.469461+0.176776j;
	z31 0.469461+0.176776j;
	spacing CLP_3C_#2_5_12_16KVsps;
	z13 0.469461+0.176776j;
	z11 2.255268+0.452050j;
	z32 0.469461+0.176776j;
	conductor_B CLP_3C_#2_5_12_16KVcond;
	conductor_A CLP_3C_#2_5_12_16KVcond;
	conductor_C CLP_3C_#2_5_12_16KVcond;
	z22 2.255268+0.452050j;
};

object line_configuration {
	z23 0.468052+0.173618j;
	name JCN_3C_#2_5_12_16KVphABC;
	z21 0.468052+0.173618j;
	z33 2.255059+0.460441j;
	z12 0.468052+0.173618j;
	z31 0.468052+0.173618j;
	spacing JCN_3C_#2_5_12_16KVsps;
	z13 0.468052+0.173618j;
	z11 2.255059+0.460441j;
	z32 0.468052+0.173618j;
	conductor_B JCN_3C_#2_5_12_16KVcond;
	conductor_A JCN_3C_#2_5_12_16KVcond;
	conductor_C JCN_3C_#2_5_12_16KVcond;
	z22 2.255059+0.460441j;
};

object line_configuration {
	z23 0.045000-0.024666j;
	name DEFAULTphABC;
	z21 0.045000-0.024666j;
	z33 0.187000+0.121333j;
	z12 0.045000-0.024666j;
	z31 0.045000-0.024666j;
	spacing DEFAULTsps;
	z13 0.045000-0.024666j;
	z11 0.187000+0.121333j;
	z32 0.045000-0.024666j;
	conductor_B DEFAULTcond;
	conductor_A DEFAULTcond;
	conductor_C DEFAULTcond;
	z22 0.187000+0.121333j;
};

object line_configuration {
	z23 0.000000+0.000000j;
	name BUSphABC;
	z21 0.000000+0.000000j;
	z33 0.000000+0.000000j;
	z12 0.000000+0.000000j;
	z31 0.000000+0.000000j;
	spacing BUSsps;
	z13 0.000000+0.000000j;
	z11 0.000000+0.000000j;
	z32 0.000000+0.000000j;
	conductor_B BUScond;
	conductor_A BUScond;
	conductor_C BUScond;
	z22 0.000000+0.000000j;
};

object line_configuration {
	z23 0.226256+0.018871j;
	name CLP_3C_1000_5_12_16KVphABC;
	z21 0.226256+0.018871j;
	z33 0.380249+0.199460j;
	z12 0.226256+0.018871j;
	z31 0.226256+0.018871j;
	spacing CLP_3C_1000_5_12_16KVsps;
	z13 0.226256+0.018871j;
	z11 0.380249+0.199460j;
	z32 0.226256+0.018871j;
	conductor_B CLP_3C_1000_5_12_16KVcond;
	conductor_A CLP_3C_1000_5_12_16KVcond;
	conductor_C CLP_3C_1000_5_12_16KVcond;
	z22 0.380249+0.199460j;
};

object line_configuration {
	z23 0.498747+0.212450j;
	name JCN_3C_1_0_5_12_16KVphABC;
	z21 0.498747+0.212450j;
	z33 1.634076+0.472256j;
	z12 0.498747+0.212450j;
	z31 0.498747+0.212450j;
	spacing JCN_3C_1_0_5_12_16KVsps;
	z13 0.498747+0.212450j;
	z11 1.634076+0.472256j;
	z32 0.498747+0.212450j;
	conductor_B JCN_3C_1_0_5_12_16KVcond;
	conductor_A JCN_3C_1_0_5_12_16KVcond;
	conductor_C JCN_3C_1_0_5_12_16KVcond;
	z22 1.634076+0.472256j;
};

object line_configuration {
	z23 0.000000-0.000000j;
	name CLP_1C_350_5_12_16KVphA;
	z21 0.000000+0.000000j;
	z33 0.915398+0.646615j;
	z12 0.000000+0.000000j;
	spacing CLP_1C_350_5_12_16KVsps;
	z13 0.000000+0.000000j;
	z11 0.915398+0.646615j;
	z32 -0.000000+0.000000j;
	z31 0.000000+0.000000j;
	conductor_A CLP_1C_350_5_12_16KVcond;
	z22 0.915398+0.646615j;
};

object line_configuration {
	z23 0.527516+0.221140j;
	name JCN_2C_#2_5_12_16KVphAB;
	z21 0.527516+0.221140j;
	z33 1.939566+0.495398j;
	z12 0.527516+0.221140j;
	spacing JCN_2C_#2_5_12_16KVsps;
	z13 0.527516+0.221140j;
	z11 1.939566+0.495398j;
	z32 0.527516+0.221140j;
	conductor_B JCN_2C_#2_5_12_16KVcond;
	conductor_A JCN_2C_#2_5_12_16KVcond;
	z31 0.527516+0.221140j;
	z22 1.939566+0.495398j;
};

object line_configuration {
	z23 0.500267+0.215373j;
	name CLP_3C_1_0_5_12_16KVphABC;
	z21 0.500267+0.215373j;
	z33 1.634592+0.464390j;
	z12 0.500267+0.215373j;
	z31 0.500267+0.215373j;
	spacing CLP_3C_1_0_5_12_16KVsps;
	z13 0.500267+0.215373j;
	z11 1.634592+0.464390j;
	z32 0.500267+0.215373j;
	conductor_B CLP_3C_1_0_5_12_16KVcond;
	conductor_A CLP_3C_1_0_5_12_16KVcond;
	conductor_C CLP_3C_1_0_5_12_16KVcond;
	z22 1.634592+0.464390j;
};

object line_configuration {
	z23 0.527516+0.221140j;
	name CLP_2C_#2_5_12_16KVphAB;
	z21 0.527516+0.221140j;
	z33 1.939566+0.495398j;
	z12 0.527516+0.221140j;
	spacing CLP_2C_#2_5_12_16KVsps;
	z13 0.527516+0.221140j;
	z11 1.939566+0.495398j;
	z32 0.527516+0.221140j;
	conductor_B CLP_2C_#2_5_12_16KVcond;
	conductor_A CLP_2C_#2_5_12_16KVcond;
	z31 0.527516+0.221140j;
	z22 1.939566+0.495398j;
};

object line_configuration {
	z23 0.045000-0.024666j;
	name DEFAULTphAB;
	z21 0.045000-0.024666j;
	z33 0.187000+0.121333j;
	z12 0.045000-0.024666j;
	spacing DEFAULTsps;
	z13 0.045000-0.024666j;
	z11 0.187000+0.121333j;
	z32 0.045000-0.024666j;
	conductor_B DEFAULTcond;
	conductor_A DEFAULTcond;
	z31 0.045000-0.024666j;
	z22 0.187000+0.121333j;
};

object line_configuration {
	z23 0.384389+0.106769j;
	name CLP_3C_350_5_12_16KVphABC;
	z21 0.384389+0.106769j;
	z33 0.740369+0.313592j;
	z12 0.384389+0.106769j;
	z31 0.384389+0.106769j;
	spacing CLP_3C_350_5_12_16KVsps;
	z13 0.384389+0.106769j;
	z11 0.740369+0.313592j;
	z32 0.384389+0.106769j;
	conductor_B CLP_3C_350_5_12_16KVcond;
	conductor_A CLP_3C_350_5_12_16KVcond;
	conductor_C CLP_3C_350_5_12_16KVcond;
	z22 0.740369+0.313592j;
};

object transformer_configuration {
	name SPCTconfigP5079023A;
	primary_voltage 7199.55785679;
	install_type POLETOP;
	secondary_voltage 120;
	connect_type SINGLE_PHASE_CENTER_TAPPED;
	impedance 0.00033+0.0022j;
	powerA_rating 37.5;
	power_rating 37.5;
};

object transformer_configuration {
	powerC_rating 37.5;
	name SPCTconfigP5079023C;
	primary_voltage 7199.55785679;
	install_type POLETOP;
	secondary_voltage 120;
	connect_type SINGLE_PHASE_CENTER_TAPPED;
	impedance 0.00033+0.0022j;
	power_rating 37.5;
};

object transformer_configuration {
	name SPCTconfigP5079023B;
	primary_voltage 7199.55785679;
	install_type POLETOP;
	secondary_voltage 120;
	connect_type SINGLE_PHASE_CENTER_TAPPED;
	impedance 0.00033+0.0022j;
	powerB_rating 37.5;
	power_rating 37.5;
};

object transformer_configuration {
	name SPCTconfigP5075895A;
	primary_voltage 7199.55785679;
	install_type POLETOP;
	secondary_voltage 120;
	connect_type SINGLE_PHASE_CENTER_TAPPED;
	impedance 0.00033+0.0022j;
	powerA_rating 75;
	power_rating 75;
};

object transformer_configuration {
	name SPCTconfigP5075895B;
	primary_voltage 7199.55785679;
	install_type POLETOP;
	secondary_voltage 120;
	connect_type SINGLE_PHASE_CENTER_TAPPED;
	impedance 0.00033+0.0022j;
	powerB_rating 75;
	power_rating 75;
};

object transformer_configuration {
	powerC_rating 75;
	name SPCTconfigP5075895C;
	primary_voltage 7199.55785679;
	install_type POLETOP;
	secondary_voltage 120;
	connect_type SINGLE_PHASE_CENTER_TAPPED;
	impedance 0.00033+0.0022j;
	power_rating 75;
};

object transformer_configuration {
	powerC_rating 75;
	name SPCTconfigP5398619C;
	primary_voltage 7199.55785679;
	install_type POLETOP;
	secondary_voltage 120;
	connect_type SINGLE_PHASE_CENTER_TAPPED;
	impedance 0.00033+0.0022j;
	power_rating 75;
};

object transformer_configuration {
	name SPCTconfigP5447256A;
	primary_voltage 7199.55785679;
	install_type POLETOP;
	secondary_voltage 120;
	connect_type SINGLE_PHASE_CENTER_TAPPED;
	impedance 0.00033+0.0022j;
	powerA_rating 37.5;
	power_rating 37.5;
};

object transformer_configuration {
	name SPCTconfigP5447256B;
	primary_voltage 7199.55785679;
	install_type POLETOP;
	secondary_voltage 120;
	connect_type SINGLE_PHASE_CENTER_TAPPED;
	impedance 0.00033+0.0022j;
	powerB_rating 37.5;
	power_rating 37.5;
};

object transformer_configuration {
	name SPCTconfigJ016A_1PTA;
	primary_voltage 7199.55785679;
	install_type POLETOP;
	secondary_voltage 120;
	connect_type SINGLE_PHASE_CENTER_TAPPED;
	impedance 0.00033+0.0022j;
	powerA_rating 15;
	power_rating 15;
};

object transformer_configuration {
	name SPCTconfigP5620916A;
	primary_voltage 7199.55785679;
	install_type POLETOP;
	secondary_voltage 120;
	connect_type SINGLE_PHASE_CENTER_TAPPED;
	impedance 0.00033+0.0022j;
	powerA_rating 75;
	power_rating 75;
};

object transformer_configuration {
	powerC_rating 5;
	name SPCTconfigx294778EC;
	primary_voltage 7199.55785679;
	install_type POLETOP;
	secondary_voltage 120;
	connect_type SINGLE_PHASE_CENTER_TAPPED;
	impedance 0.00033+0.0022j;
	power_rating 5;
};

object transformer_configuration {
	name SPCTconfigx294778EB;
	primary_voltage 7199.55785679;
	install_type POLETOP;
	secondary_voltage 120;
	connect_type SINGLE_PHASE_CENTER_TAPPED;
	impedance 0.00033+0.0022j;
	powerB_rating 5;
	power_rating 5;
};

object transformer_configuration {
	name SPCTconfigx294778EA;
	primary_voltage 7199.55785679;
	install_type POLETOP;
	secondary_voltage 120;
	connect_type SINGLE_PHASE_CENTER_TAPPED;
	impedance 0.00033+0.0022j;
	powerA_rating 5;
	power_rating 5;
};

object transformer_configuration {
	name SPCTconfigP5398619A;
	primary_voltage 7199.55785679;
	install_type POLETOP;
	secondary_voltage 120;
	connect_type SINGLE_PHASE_CENTER_TAPPED;
	impedance 0.00033+0.0022j;
	powerA_rating 75;
	power_rating 75;
};

object transformer_configuration {
	name SPCTconfigP5320414B;
	primary_voltage 7199.55785679;
	install_type POLETOP;
	secondary_voltage 120;
	connect_type SINGLE_PHASE_CENTER_TAPPED;
	impedance 0.00033+0.0022j;
	powerB_rating 112.5;
	power_rating 112.5;
};

object transformer_configuration {
	powerC_rating 112.5;
	name SPCTconfigP5320414C;
	primary_voltage 7199.55785679;
	install_type POLETOP;
	secondary_voltage 120;
	connect_type SINGLE_PHASE_CENTER_TAPPED;
	impedance 0.00033+0.0022j;
	power_rating 112.5;
};

object transformer_configuration {
	name SPCTconfigP5320414A;
	primary_voltage 7199.55785679;
	install_type POLETOP;
	secondary_voltage 120;
	connect_type SINGLE_PHASE_CENTER_TAPPED;
	impedance 0.00033+0.0022j;
	powerA_rating 112.5;
	power_rating 112.5;
};

object transformer_configuration {
	powerC_rating 37.5;
	name SPCTconfigP5077566C;
	primary_voltage 7199.55785679;
	install_type POLETOP;
	secondary_voltage 120;
	connect_type SINGLE_PHASE_CENTER_TAPPED;
	impedance 0.00033+0.0022j;
	power_rating 37.5;
};

object transformer_configuration {
	name SPCTconfigP5077566B;
	primary_voltage 7199.55785679;
	install_type POLETOP;
	secondary_voltage 120;
	connect_type SINGLE_PHASE_CENTER_TAPPED;
	impedance 0.00033+0.0022j;
	powerB_rating 37.5;
	power_rating 37.5;
};

object transformer_configuration {
	name SPCTconfigP5077566A;
	primary_voltage 7199.55785679;
	install_type POLETOP;
	secondary_voltage 120;
	connect_type SINGLE_PHASE_CENTER_TAPPED;
	impedance 0.00033+0.0022j;
	powerA_rating 37.5;
	power_rating 37.5;
};

object transformer_configuration {
	name SPCTconfigP5078696A;
	primary_voltage 7199.55785679;
	install_type POLETOP;
	secondary_voltage 120;
	connect_type SINGLE_PHASE_CENTER_TAPPED;
	impedance 0.00033+0.0022j;
	powerA_rating 75;
	power_rating 75;
};

object transformer_configuration {
	name SPCTconfigP5076423B;
	primary_voltage 7199.55785679;
	install_type POLETOP;
	secondary_voltage 120;
	connect_type SINGLE_PHASE_CENTER_TAPPED;
	impedance 0.00033+0.0022j;
	powerB_rating 37.5;
	power_rating 37.5;
};

object transformer_configuration {
	powerC_rating 37.5;
	name SPCTconfigP5076423C;
	primary_voltage 7199.55785679;
	install_type POLETOP;
	secondary_voltage 120;
	connect_type SINGLE_PHASE_CENTER_TAPPED;
	impedance 0.00033+0.0022j;
	power_rating 37.5;
};

object transformer_configuration {
	name SPCTconfigP5076423A;
	primary_voltage 7199.55785679;
	install_type POLETOP;
	secondary_voltage 120;
	connect_type SINGLE_PHASE_CENTER_TAPPED;
	impedance 0.00033+0.0022j;
	powerA_rating 37.5;
	power_rating 37.5;
};

object transformer_configuration {
	powerC_rating 25;
	name SPCTconfigP5076415C;
	primary_voltage 7199.55785679;
	install_type POLETOP;
	secondary_voltage 120;
	connect_type SINGLE_PHASE_CENTER_TAPPED;
	impedance 0.00033+0.0022j;
	power_rating 25;
};

object transformer_configuration {
	name SPCTconfigP5076415B;
	primary_voltage 7199.55785679;
	install_type POLETOP;
	secondary_voltage 120;
	connect_type SINGLE_PHASE_CENTER_TAPPED;
	impedance 0.00033+0.0022j;
	powerB_rating 25;
	power_rating 25;
};

object transformer_configuration {
	name SPCTconfigP5076415A;
	primary_voltage 7199.55785679;
	install_type POLETOP;
	secondary_voltage 120;
	connect_type SINGLE_PHASE_CENTER_TAPPED;
	impedance 0.00033+0.0022j;
	powerA_rating 25;
	power_rating 25;
};

object transformer_configuration {
	powerC_rating 37.5;
	name SPCTconfigP5075894C;
	primary_voltage 7199.55785679;
	install_type POLETOP;
	secondary_voltage 120;
	connect_type SINGLE_PHASE_CENTER_TAPPED;
	impedance 0.00033+0.0022j;
	power_rating 37.5;
};

object transformer_configuration {
	name SPCTconfigP5075894B;
	primary_voltage 7199.55785679;
	install_type POLETOP;
	secondary_voltage 120;
	connect_type SINGLE_PHASE_CENTER_TAPPED;
	impedance 0.00033+0.0022j;
	powerB_rating 37.5;
	power_rating 37.5;
};

object transformer_configuration {
	name SPCTconfigP5075894A;
	primary_voltage 7199.55785679;
	install_type POLETOP;
	secondary_voltage 120;
	connect_type SINGLE_PHASE_CENTER_TAPPED;
	impedance 0.00033+0.0022j;
	powerA_rating 37.5;
	power_rating 37.5;
};

object transformer_configuration {
	name SPCTconfigx1680707EA;
	primary_voltage 7199.55785679;
	install_type POLETOP;
	secondary_voltage 120;
	connect_type SINGLE_PHASE_CENTER_TAPPED;
	impedance 0.00033+0.0022j;
	powerA_rating 10;
	power_rating 10;
};

object transformer_configuration {
	name SPCTconfigP5595831A;
	primary_voltage 7199.55785679;
	install_type POLETOP;
	secondary_voltage 120;
	connect_type SINGLE_PHASE_CENTER_TAPPED;
	impedance 0.00033+0.0022j;
	powerA_rating 5;
	power_rating 5;
};

object transformer_configuration {
	name SPCTconfigP5620917A;
	primary_voltage 7199.55785679;
	install_type POLETOP;
	secondary_voltage 120;
	connect_type SINGLE_PHASE_CENTER_TAPPED;
	impedance 0.00033+0.0022j;
	powerA_rating 75;
	power_rating 75;
};

object transformer_configuration {
	name SPCTconfigP5078005A;
	primary_voltage 7199.55785679;
	install_type POLETOP;
	secondary_voltage 120;
	connect_type SINGLE_PHASE_CENTER_TAPPED;
	impedance 0.00033+0.0022j;
	powerA_rating 15;
	power_rating 15;
};

object transformer_configuration {
	name SPCTconfigP5078005B;
	primary_voltage 7199.55785679;
	install_type POLETOP;
	secondary_voltage 120;
	connect_type SINGLE_PHASE_CENTER_TAPPED;
	impedance 0.00033+0.0022j;
	powerB_rating 15;
	power_rating 15;
};

object transformer_configuration {
	powerC_rating 15;
	name SPCTconfigP5078005C;
	primary_voltage 7199.55785679;
	install_type POLETOP;
	secondary_voltage 120;
	connect_type SINGLE_PHASE_CENTER_TAPPED;
	impedance 0.00033+0.0022j;
	power_rating 15;
};

object transformer_configuration {
	name SPCTconfigP5444213A;
	primary_voltage 7199.55785679;
	install_type POLETOP;
	secondary_voltage 120;
	connect_type SINGLE_PHASE_CENTER_TAPPED;
	impedance 0.00033+0.0022j;
	powerA_rating 100;
	power_rating 100;
};
