clock {
	timezone PST+8PDT;
	starttime '2000-01-01 00:00:00';
	stoptime '2000-01-01 00:00:00';
};

#include "schedules.glm";
#set minimum_timestep=60;
#set profiler=1;
#set relax_naming_rules=1;
module generators;
module tape;
module climate;
module residential {
	implicit_enduses NONE;
};

module powerflow {
	solver_method NR;
	NR_iteration_limit 50;
};

object climate {
	name Climate;
	interpolate QUADRATIC;
	tmyfile climate.tmy2;
};

object node {
	phases ABCN;
	name COLOMA SUB;
	bustype SWING;
	longitude 0.366168846059;
	nominal_voltage 7200.0;
	latitude 1188.78454546;
};

object regulator_configuration {
	Control OUTPUT_VOLTAGE;
	Type A;
	raise_taps 16.0;
	name Coloma Bus Regs-CONFIG;
	band_center 120.0;
	current_transducer_ratio 500;
	tap_pos_B 1;
	tap_pos_C 1;
	time_delay 30.0;
	connect_type WYE_WYE;
	regulation 0.1;
	CT_phase ABC;
	power_transducer_ratio 60.0;
	lower_taps 16.0;
	tap_pos_A 1;
	control_level INDIVIDUAL;
	PT_phase ABC;
	band_width 2.000004;
};

object regulator {
	phases ACB;
	from COLOMA SUB;
	name Coloma Bus Regs;
	longitude 0.0;
	to nodeCOLOMA4Coloma Bus Regs;
	latitude 1189.21325596;
	configuration Coloma Bus Regs-CONFIG;
};

object fuse {
	phases ACB;
	from nodeCOLOMA4Coloma Bus Regs;
	name COLOMA4;
	current_limit 9999.0 A;
	longitude 0.366168846059;
	to node948739COLOMA4;
	latitude 1188.79583714;
};

object underground_line {
	phases ACB;
	from node948739COLOMA4;
	name 948739;
	longitude 0.462552676732;
	to node824694948739;
	length 70;
	latitude 1188.76647879;
	configuration 923991-LINECONFIG;
};

object underground_line {
	phases ACB;
	from node824694948739;
	name 824694;
	to nodeRCMA4-R0001x1824694;
	longitude 0.512369038652;
	length 70;
	latitude 1188.73655585;
	configuration 923991-LINECONFIG;
};

object fuse {
	phases ACB;
	from nodeRCMA4-R0001x1824694;
	name RCMA4-R0001x1;
	current_limit 9999.0 A;
	longitude 0.512369038652;
	to node984636RCMA4-R0001x1;
	latitude 1188.73655585;
};

object underground_line {
	phases ACB;
	from node984636RCMA4-R0001x1;
	name 984636;
	longitude 0.54269204156;
	to node984637984636;
	length 133;
	latitude 1188.79922464;
	configuration 923991-LINECONFIG;
};

object underground_line {
	phases ACB;
	from node984637984636;
	name 984637;
	longitude 0.54377500595;
	to node984634984637;
	length 10;
	latitude 1188.80995173;
	configuration 923991-LINECONFIG;
};

object underground_line {
	phases ACB;
	from node984634984637;
	name 984634;
	longitude 0.560019471793;
	to node12049x1-B984634;
	length 10;
	latitude 1188.80317672;
	configuration 923991-LINECONFIG;
};

object underground_line {
	phases ACB;
	from node984634984637;
	name 984638;
	longitude 0.553521685456;
	to node984639984638;
	length 10;
	latitude 1188.81559756;
	configuration 923991-LINECONFIG;
};

object underground_line {
	phases ACB;
	from node984639984638;
	name 984639;
	longitude 1.38957019421;
	to node824697984639;
	length 781;
	latitude 1188.81954965;
	configuration 923991-LINECONFIG;
};

object underground_line {
	phases B;
	from node824697984639;
	name 824697;
	to nodeT21526824697;
	longitude 1.411229482;
	length 26;
	latitude 1188.80995173;
	configuration 825117-LINECONFIG;
};

object underground_line {
	phases ACB;
	from node824697984639;
	name 824700;
	longitude 1.50219849073;
	to node824701824700;
	length 257;
	latitude 1188.95222681;
	configuration 923991-LINECONFIG;
};

object overhead_line {
	phases ACBN;
	from node824701824700;
	name 824701;
	longitude 1.50761331267;
	to node824702824701;
	length 129;
	latitude 1189.02505811;
	configuration 824894-LINECONFIG;
};

object overhead_line {
	phases ACBN;
	from node824702824701;
	name 824702;
	longitude 1.50761331267;
	to node824704824702;
	length 30;
	latitude 1189.04199562;
	configuration 824894-LINECONFIG;
};

object overhead_line {
	phases ACBN;
	from node824704824702;
	name 824704;
	longitude 1.52277481413;
	to node824705824704;
	length 752;
	latitude 1189.46656253;
	configuration 824894-LINECONFIG;
};

object overhead_line {
	phases ACB;
	from node824705824704;
	name 824705;
	longitude 1.67438982867;
	to node1808-19-005824705;
	length 140;
	latitude 1189.46656253;
	configuration 824830-LINECONFIG;
};

object overhead_line {
	phases ACBN;
	from node824705824704;
	name 824707;
	longitude 1.53685335119;
	to node979614824707;
	length 1574;
	latitude 1190.35578181;
	configuration 824894-LINECONFIG;
};

object underground_line {
	phases ACB;
	from node979614824707;
	name 979614;
	longitude 1.53252149363;
	to node979615979614;
	length 20;
	latitude 1190.36425056;
	configuration 923991-LINECONFIG;
};

object underground_line {
	phases ACB;
	from node979615979614;
	name 979615;
	longitude 0.522115718158;
	to nodeT28934979615;
	length 960;
	latitude 1190.35973389;
	configuration 825456-LINECONFIG;
};

object underground_line {
	phases ACB;
	from node979615979614;
	name 979617;
	longitude 1.65164757649;
	to nodeT28933979617;
	length 140;
	latitude 1190.37497765;
	configuration 825456-LINECONFIG;
};

object overhead_line {
	phases ACB;
	from node979614824707;
	name 979839;
	longitude 1.53468742241;
	to node824712979839;
	length 50;
	latitude 1190.3766714;
	configuration 824894-LINECONFIG;
};

object underground_line {
	phases ACB;
	from node824712979839;
	name 824712;
	longitude 1.53143852924;
	to node824713824712;
	length 1036;
	latitude 1190.93899673;
	configuration 825456-LINECONFIG;
};

object underground_line {
	phases B;
	from node824713824712;
	name 824713;
	longitude 1.25095075234;
	to node1808-19-008824713;
	length 392;
	latitude 1191.10498433;
	configuration 825117-LINECONFIG;
};

object underground_line {
	phases C;
	from node824713824712;
	name 824715;
	to node824716824715;
	longitude 1.53143852924;
	length 830;
	latitude 1191.40760118;
	configuration 925975-LINECONFIG;
};

object underground_line {
	phases C;
	from node824716824715;
	name 824716;
	longitude 1.58666971311;
	to nodeR7229x1824716;
	length 20;
	latitude 1191.40760118;
	configuration 925975-LINECONFIG;
};

object fuse {
	phases C;
	from nodeR7229x1824716;
	name R7229x1;
	current_limit 9999.0 A;
	longitude 1.58666971311;
	to node920601R7229x1;
	latitude 1191.40760118;
};

object overhead_line {
	phases CN;
	from node920601R7229x1;
	name 920601;
	longitude 2.39672707652;
	to node824717920601;
	length 778;
	latitude 1191.40985951;
	configuration 824825-LINECONFIG;
};

object overhead_line {
	phases CN;
	from node824717920601;
	name 824717;
	longitude 2.41188857797;
	to node824718824717;
	length 1237;
	latitude 1192.10824951;
	configuration 824825-LINECONFIG;
};

object overhead_line {
	phases CN;
	from node824718824717;
	name 824718;
	longitude 2.76818386214;
	to node824720824718;
	length 433;
	latitude 1192.26689752;
	configuration 824825-LINECONFIG;
};

object overhead_line {
	phases CN;
	from node824720824718;
	name 824720;
	longitude 2.76818386214;
	to node824721824720;
	length 1357;
	latitude 1193.03303755;
	configuration 824825-LINECONFIG;
};

object overhead_line {
	phases CN;
	from node824721824720;
	name 824721;
	longitude 3.69628434401;
	to node824722824721;
	length 1076;
	latitude 1193.40001694;
	configuration 824825-LINECONFIG;
};

object overhead_line {
	phases CN;
	from node824722824721;
	name 824722;
	to node824723824722;
	longitude 4.85830513402;
	length 1073;
	latitude 1193.3909836;
	configuration 824825-LINECONFIG;
};

object overhead_line {
	phases CN;
	from node824723824722;
	name 824723;
	longitude 5.63154170818;
	to node906386824723;
	length 714;
	latitude 1193.38195026;
	configuration 824825-LINECONFIG;
};

object overhead_line {
	phases CN;
	from node906386824723;
	name 906386;
	longitude 5.99433477869;
	to node824726906386;
	length 335;
	latitude 1193.37743359;
	configuration 824825-LINECONFIG;
};

object overhead_line {
	phases CN;
	from node824726906386;
	name 824726;
	longitude 6.40152938917;
	to node824727824726;
	length 376;
	latitude 1193.37291692;
	configuration 824825-LINECONFIG;
};

object overhead_line {
	phases CN;
	from node824727824726;
	name 824727;
	longitude 7.00257462539;
	to node824728824727;
	length 555;
	latitude 1193.36557733;
	configuration 824825-LINECONFIG;
};

object overhead_line {
	phases CN;
	from node824728824727;
	name 824728;
	longitude 7.63935768646;
	to node824729824728;
	length 588;
	latitude 1193.36444817;
	configuration 824825-LINECONFIG;
};

object overhead_line {
	phases CN;
	from node824729824728;
	name 824729;
	longitude 7.79313862978;
	to node824730824729;
	length 142;
	latitude 1193.36444817;
	configuration 824825-LINECONFIG;
};

object overhead_line {
	phases CN;
	from node824730824729;
	name 824730;
	longitude 8.12994055494;
	to node824731824730;
	length 311;
	latitude 1193.363319;
	configuration 824825-LINECONFIG;
};

object overhead_line {
	phases CN;
	from node824731824730;
	name 824731;
	to node824732824731;
	longitude 8.09528569447;
	length 281;
	latitude 1193.52083784;
	configuration 824825-LINECONFIG;
};

object overhead_line {
	phases CN;
	from node824732824731;
	name 824732;
	longitude 8.02272708037;
	to node824733824732;
	length 282;
	latitude 1193.67553377;
	configuration 824825-LINECONFIG;
};

object overhead_line {
	phases CN;
	from node824733824732;
	name 824733;
	longitude 7.80288530928;
	to node824734824733;
	length 592;
	latitude 1193.98944229;
	configuration 824825-LINECONFIG;
};

object overhead_line {
	phases C;
	from node824734824733;
	name 824734;
	longitude 7.68159329765;
	to node824738824734;
	length 242;
	latitude 1194.11026319;
	configuration 824825-LINECONFIG;
};

object underground_line {
	phases C;
	from node824738824734;
	name 824738;
	longitude 7.624196185;
	to nodeF7974x1824738;
	length 50;
	latitude 1194.09840693;
	configuration 925975-LINECONFIG;
};

object fuse {
	phases C;
	from nodeF7974x1824738;
	name F7974x1;
	current_limit 9999.0 A;
	longitude 7.624196185;
	to node824739F7974x1;
	latitude 1194.09840693;
};

object underground_line {
	phases C;
	from node824739F7974x1;
	name 824739;
	longitude 6.41452496185;
	to node824740824739;
	length 1217;
	latitude 1194.16615697;
	configuration 925975-LINECONFIG;
};

object underground_line {
	phases C;
	from node824740824739;
	name 824740;
	longitude 5.87520869584;
	to node824741824740;
	length 816;
	latitude 1194.53087802;
	configuration 925975-LINECONFIG;
};

object underground_line {
	phases C;
	from node824741824740;
	name 824741;
	to node824742824741;
	longitude 5.4636822278;
	length 380;
	latitude 1194.53539469;
	configuration 925975-LINECONFIG;
};

object underground_line {
	phases C;
	from node824742824741;
	name 824742;
	longitude 5.63154170818;
	to nodeFCMA4-F008x1824742;
	length 178;
	latitude 1194.58451347;
	configuration 925975-LINECONFIG;
};

object fuse {
	phases C;
	from nodeFCMA4-F008x1824742;
	name FCMA4-F008x1;
	current_limit 9999.0 A;
	longitude 5.63154170818;
	to node824743FCMA4-F008x1;
	latitude 1194.58451347;
};

object underground_line {
	phases C;
	from node824743FCMA4-F008x1;
	name 824743;
	longitude 5.59580388333;
	to node1808-0151824743;
	length 699;
	latitude 1194.97859287;
	configuration 925975-LINECONFIG;
};

object underground_line {
	phases C;
	from node824742824741;
	name 824745;
	longitude 5.14962255482;
	to node1808-0164824745;
	length 305;
	latitude 1194.48175924;
	configuration 925975-LINECONFIG;
};

object underground_line {
	phases C;
	from node824732824731;
	name 905282;
	longitude 8.11911091104;
	to nodeF5088x1905282;
	length 22;
	latitude 1193.52140243;
	configuration 925975-LINECONFIG;
};

object fuse {
	phases C;
	from nodeF5088x1905282;
	name F5088x1;
	current_limit 9999.0 A;
	longitude 8.11911091104;
	to node905284F5088x1;
	latitude 1193.52140243;
};

object underground_line {
	phases C;
	from node905284F5088x1;
	name 905284;
	longitude 8.58586856295;
	to nodeT5087905284;
	length 432;
	latitude 1193.53721077;
	configuration 925975-LINECONFIG;
};

object overhead_line {
	phases CN;
	from node824731824730;
	name 824747;
	longitude 8.57287299027;
	to node824748824747;
	length 409;
	latitude 1193.35428566;
	configuration 824825-LINECONFIG;
};

object overhead_line {
	phases CN;
	from node824748824747;
	name 824748;
	longitude 8.68658425118;
	to node824750824748;
	length 112;
	latitude 1193.33170231;
	configuration 824825-LINECONFIG;
};

object overhead_line {
	phases CN;
	from node824750824748;
	name 824750;
	longitude 8.73098579115;
	to node824751824750;
	length 100;
	latitude 1193.2803252;
	configuration 824825-LINECONFIG;
};

object overhead_line {
	phases CN;
	from node824751824750;
	name 824751;
	longitude 8.73856654188;
	to node824752824751;
	length 175;
	latitude 1193.18152306;
	configuration 824825-LINECONFIG;
};

object overhead_line {
	phases CN;
	from node824752824751;
	name 824752;
	longitude 8.74398136383;
	to node824755824752;
	length 300;
	latitude 1193.01214796;
	configuration 824825-LINECONFIG;
};

object overhead_line {
	phases CN;
	from node824755824752;
	name 824755;
	longitude 8.74939618577;
	to node824759824755;
	length 309;
	latitude 1192.83769161;
	configuration 824825-LINECONFIG;
};

object overhead_line {
	phases CN;
	from node824759824755;
	name 824759;
	to node900841824759;
	longitude 8.75372804333;
	length 322;
	latitude 1192.65589566;
	configuration 949086-LINECONFIG;
};

object overhead_line {
	phases CN;
	from node900841824759;
	name 900841;
	longitude 8.75589397211;
	to node824760900841;
	length 190;
	latitude 1192.58758104;
	configuration 949086-LINECONFIG;
};

object overhead_line {
	phases CN;
	from node824760900841;
	name 824760;
	longitude 8.76239175845;
	to node900842824760;
	length 315;
	latitude 1192.41030177;
	configuration 949086-LINECONFIG;
};

object overhead_line {
	phases CN;
	from node900842824760;
	name 900842;
	longitude 8.7678065804;
	to node949086900842;
	length 335;
	latitude 1192.22511833;
	configuration 949086-LINECONFIG;
};

object line_configuration {
	name 949086-LINECONFIG;
	spacing 825694-LINESPACING;
	conductor_N 949086_conductor_N;
	conductor_C 949086_conductor_N;
};

object overhead_line_conductor {
	diameter 0.721;
	name 949086_conductor_N;
	geometric_mean_radius 0.00504;
	resistance 1.65;
};

object overhead_line {
	phases CN;
	from node949086900842;
	name 949086;
	longitude 8.77213843796;
	to node824761949086;
	length 315;
	latitude 1192.07550366;
	configuration 949086-LINECONFIG;
};

object overhead_line {
	phases CN;
	from node824761949086;
	name 824761;
	longitude 9.07428550265;
	to node914176824761;
	length 325;
	latitude 1192.07663282;
	configuration 914176-LINECONFIG;
};

object line_configuration {
	name 914176-LINECONFIG;
	spacing 825694-LINESPACING;
	conductor_N 824894_conductor_N;
	conductor_C 824894_conductor_C;
};

object overhead_line {
	phases C;
	from node914176824761;
	name 914176;
	longitude 9.40458964147;
	to node1808-29-023914176;
	length 300;
	latitude 1192.07889116;
	configuration 914176-LINECONFIG;
};

object underground_line {
	phases C;
	from node824761949086;
	name 949050;
	to node12900x1-Bx1949050;
	longitude 8.77105547357;
	length 659;
	latitude 1192.06138906;
	configuration 925975-LINECONFIG;
};

object underground_line {
	phases C;
	from node824760900841;
	name 824798;
	longitude 8.82412072866;
	to nodeFCMA4-F074x1824798;
	length 66;
	latitude 1192.55144769;
	configuration 925975-LINECONFIG;
};

object fuse {
	phases C;
	from nodeFCMA4-F074x1824798;
	name FCMA4-F074x1;
	current_limit 9999.0 A;
	longitude 8.82412072866;
	to node824799FCMA4-F074x1;
	latitude 1192.55144769;
};

object underground_line {
	phases C;
	from node824799FCMA4-F074x1;
	name 824799;
	longitude 8.88801562764;
	to node824800824799;
	length 58;
	latitude 1192.54975394;
	configuration 925975-LINECONFIG;
};

object underground_line {
	phases C;
	from node824800824799;
	name 824800;
	longitude 9.52371572432;
	to node824802824800;
	length 587;
	latitude 1192.54636643;
	configuration 925975-LINECONFIG;
};

object underground_line {
	phases C;
	from node824802824800;
	name 824802;
	longitude 9.34177770687;
	to node1808-0088824802;
	length 194;
	latitude 1192.60169563;
	configuration 925975-LINECONFIG;
};

object overhead_line {
	phases C;
	from node824759824755;
	name 824805;
	longitude 9.01797135439;
	to node1808-29-032824805;
	length 248;
	latitude 1192.83712702;
	configuration 824825-LINECONFIG;
};

object underground_line {
	phases C;
	from node824759824755;
	name 824809;
	to nodeFCMA4-F056x1824809;
	longitude 8.71799021848;
	length 49;
	latitude 1192.81567284;
	configuration 925975-LINECONFIG;
};

object fuse {
	phases C;
	from nodeFCMA4-F056x1824809;
	name FCMA4-F056x1;
	current_limit 9999.0 A;
	longitude 8.71799021848;
	to node824810FCMA4-F056x1;
	latitude 1192.81567284;
};

object underground_line {
	phases C;
	from node824810FCMA4-F056x1;
	name 824810;
	longitude 8.32812303823;
	to node1808-0144824810;
	length 360;
	latitude 1192.81567284;
	configuration 925975-LINECONFIG;
};

object underground_line {
	phases C;
	from node824727824726;
	name 824814;
	longitude 6.4610924306;
	to nodeFCMA4-F107x1824814;
	length 78;
	latitude 1193.40453361;
	configuration 925975-LINECONFIG;
};

object fuse {
	phases C;
	from nodeFCMA4-F107x1824814;
	name FCMA4-F107x1;
	current_limit 9999.0 A;
	longitude 6.4610924306;
	to node824815FCMA4-F107x1;
	latitude 1193.40453361;
};

object underground_line {
	phases C;
	from node824815FCMA4-F107x1;
	name 824815;
	longitude 6.41669089063;
	to node824816824815;
	length 131;
	latitude 1193.33452523;
	configuration 925975-LINECONFIG;
};

object underground_line {
	phases C;
	from node824816824815;
	name 824816;
	longitude 6.41452496185;
	to node1808-29-034824816;
	length 403;
	latitude 1193.56205245;
	configuration 925975-LINECONFIG;
};

object underground_line {
	phases C;
	from node824816824815;
	name 824818;
	to node824820824818;
	longitude 6.41669089063;
	length 198;
	latitude 1193.22273767;
	configuration 925975-LINECONFIG;
};

object underground_line {
	phases C;
	from node824820824818;
	name 824820;
	longitude 6.9386797264;
	to node1808-0150824820;
	length 534;
	latitude 1193.09288342;
	configuration 925975-LINECONFIG;
};

object underground_line {
	phases C;
	from node906386824723;
	name 911237;
	longitude 5.66186471109;
	to node911238911237;
	length 45;
	latitude 1193.39267735;
	configuration 925975-LINECONFIG;
};

object underground_line {
	phases C;
	from node911238911237;
	name 911238;
	to nodeT4114911238;
	longitude 5.66186471109;
	length 280;
	latitude 1193.55076078;
	configuration 925975-LINECONFIG;
};

object underground_line {
	phases C;
	from node824722824721;
	name 824822;
	longitude 3.69520137962;
	to nodeF18632x1824822;
	length 70;
	latitude 1193.38477318;
	configuration 825688-LINECONFIG;
};

object fuse {
	phases C;
	from nodeF18632x1824822;
	name F18632x1;
	current_limit 9999.0 A;
	longitude 3.69520137962;
	to node824823F18632x1;
	latitude 1193.38477318;
};

object underground_line {
	phases C;
	from node824823F18632x1;
	name 824823;
	longitude 3.69628434401;
	to node900921824823;
	length 17;
	latitude 1193.3667065;
	configuration 825688-LINECONFIG;
};

object underground_line {
	phases C;
	from node900921824823;
	name 900921;
	to nodeT18630900921;
	longitude 5.20160484552;
	length 2486;
	latitude 1192.3538434;
	configuration 825688-LINECONFIG;
};

object overhead_line {
	phases CN;
	from node824722824721;
	name 910307;
	longitude 3.57715826116;
	to node910308910307;
	length 250;
	latitude 1193.52704826;
	configuration 825694-LINECONFIG;
};

object overhead_line {
	phases C;
	from node910308910307;
	name 910308;
	longitude 3.57715826116;
	to node1808-20-011910308;
	length 250;
	latitude 1193.66819418;
	configuration 825694-LINECONFIG;
};

object line_configuration {
	name 824825-LINECONFIG;
	spacing 825694-LINESPACING;
	conductor_N 913826_conductor_N;
	conductor_C 913826_conductor_N;
};

object overhead_line {
	phases C;
	from node824717920601;
	name 824825;
	longitude 2.7616860758;
	to node1808-20-008824825;
	length 338;
	latitude 1191.3963095;
	configuration 824825-LINECONFIG;
};

object underground_line {
	phases ACB;
	from node824713824712;
	name 824827;
	longitude 0.421400029928;
	to node974368824827;
	length 1032;
	latitude 1190.86955294;
	configuration 825456-LINECONFIG;
};

object underground_line {
	phases ACB;
	from node974368824827;
	name 974368;
	longitude 0.328265092424;
	to nodeT29595974368;
	length 678;
	latitude 1190.48958814;
	configuration 825456-LINECONFIG;
};

object underground_line {
	phases ACB;
	from node974368824827;
	name 974371;
	longitude 0.33909473632;
	to nodeT29596974371;
	length 668;
	latitude 1191.16370103;
	configuration 825456-LINECONFIG;
};

object line_configuration {
	name 824830-LINECONFIG;
	spacing 824894-LINESPACING;
	conductor_N 825694_conductor_N;
	conductor_A 825694_conductor_N;
	conductor_C 825694_conductor_N;
	conductor_B 825694_conductor_N;
};

object overhead_line {
	phases ACB;
	from node824701824700;
	name 824830;
	longitude 1.7231232262;
	to node1808-19-009824830;
	length 204;
	latitude 1188.95109764;
	configuration 824830-LINECONFIG;
};

object underground_line {
	phases ACB;
	from node824697984639;
	name 824833;
	longitude 1.68955133012;
	to node824834824833;
	length 281;
	latitude 1188.7935788;
	configuration 923991-LINECONFIG;
};

object underground_line {
	phases ACB;
	from node824834824833;
	name 824834;
	longitude 1.69496615207;
	to node533x1-Bx1824834;
	length 10;
	latitude 1188.7935788;
	configuration 824901-LINECONFIG;
};

object switch {
	status CLOSED;
	phases ACB;
	from node533x1-Bx1824834;
	name 533x1-Bx1;
	longitude 1.69496615207;
	to node533x1-Ax1533x1-Bx1;
	latitude 1188.7935788;
};

object switch {
	status CLOSED;
	phases ACB;
	from node533x1-Ax1533x1-Bx1;
	name 533x1-Ax1;
	longitude 1.69496615207;
	to node824835533x1-Ax1;
	latitude 1188.7935788;
};

object overhead_line {
	phases ACBN;
	from node824835533x1-Ax1;
	name 824835;
	longitude 1.77618848129;
	to node824836824835;
	length 75;
	latitude 1188.7935788;
	configuration 824894-LINECONFIG;
};

object overhead_line {
	phases ACBN;
	from node824836824835;
	name 824836;
	longitude 2.05126143624;
	to node824837824836;
	length 254;
	latitude 1188.7935788;
	configuration 824894-LINECONFIG;
};

object overhead_line {
	phases ACBN;
	from node824837824836;
	name 824837;
	to node824838824837;
	longitude 5.69002178522;
	length 3360;
	latitude 1188.79640172;
	configuration 824894-LINECONFIG;
};

object underground_line {
	phases ACB;
	from node824838824837;
	name 824838;
	longitude 5.67486028377;
	to nodeFCMA4-F016x1824838;
	length 117;
	latitude 1188.86189343;
	configuration 825456-LINECONFIG;
};

object fuse {
	phases ACB;
	from nodeFCMA4-F016x1824838;
	name FCMA4-F016x1;
	current_limit 9999.0 A;
	longitude 5.67486028377;
	to node824839FCMA4-F016x1;
	latitude 1188.86189343;
};

object underground_line {
	phases ACB;
	from node824839FCMA4-F016x1;
	name 824839;
	longitude 5.97809031285;
	to node1808-19-010824839;
	length 2136;
	latitude 1190.05768163;
	configuration 825456-LINECONFIG;
};

object overhead_line {
	phases ACBN;
	from node824838824837;
	name 824842;
	longitude 6.10154825326;
	to node824843824842;
	length 380;
	latitude 1188.79583714;
	configuration 824894-LINECONFIG;
};

object overhead_line {
	phases ACBN;
	from node824843824842;
	name 824843;
	to node824844824843;
	longitude 6.84771071768;
	length 689;
	latitude 1188.7969663;
	configuration 824894-LINECONFIG;
};

object overhead_line {
	phases ACBN;
	from node824844824843;
	name 824844;
	longitude 10.3521834823;
	to node824847824844;
	length 3236;
	latitude 1188.80317672;
	configuration 824894-LINECONFIG;
};

object overhead_line {
	phases ACBN;
	from node824847824844;
	name 824847;
	longitude 11.449226409;
	to node824848824847;
	length 1014;
	latitude 1188.8212434;
	configuration 824894-LINECONFIG;
};

object underground_line {
	phases C;
	from node824848824847;
	name 824848;
	longitude 11.4546412309;
	to nodeR7231x1824848;
	length 118;
	latitude 1188.75462253;
	configuration 925975-LINECONFIG;
};

object fuse {
	phases C;
	from nodeR7231x1824848;
	name R7231x1;
	current_limit 9999.0 A;
	longitude 11.4546412309;
	to node824849R7231x1;
	latitude 1188.75462253;
};

object underground_line {
	phases C;
	from node824849R7231x1;
	name 824849;
	longitude 11.6928933966;
	to node824850824849;
	length 2623;
	latitude 1187.27880082;
	configuration 925975-LINECONFIG;
};

object underground_line {
	phases C;
	from node824850824849;
	name 824850;
	longitude 13.4916972477;
	to node1807-0244824850;
	length 1877;
	latitude 1186.78479012;
	configuration 925975-LINECONFIG;
};

object overhead_line {
	phases CN;
	from node824850824849;
	name 824852;
	longitude 11.7394608654;
	to node824853824852;
	length 301;
	latitude 1187.11055489;
	configuration 825694-LINECONFIG;
};

object overhead_line {
	phases CN;
	from node824853824852;
	name 824853;
	longitude 11.7513734737;
	to node824855824853;
	length 1294;
	latitude 1186.37998363;
	configuration 825694-LINECONFIG;
};

object overhead_line {
	phases CN;
	from node824855824853;
	name 824855;
	longitude 11.7535394025;
	to node824857824855;
	length 339;
	latitude 1186.18858976;
	configuration 825694-LINECONFIG;
};

object overhead_line {
	phases CN;
	from node824857824855;
	name 824857;
	longitude 11.7567882956;
	to node824858824857;
	length 317;
	latitude 1186.00961674;
	configuration 825694-LINECONFIG;
};

object overhead_line {
	phases CN;
	from node824858824857;
	name 824858;
	longitude 11.7676179395;
	to node824859824858;
	length 303;
	latitude 1185.89726459;
	configuration 825694-LINECONFIG;
};

object overhead_line {
	phases CN;
	from node824859824858;
	name 824859;
	longitude 12.7747748218;
	to node980396824859;
	length 930;
	latitude 1185.90460418;
	configuration 825694-LINECONFIG;
};

object overhead_line {
	phases CN;
	from node980396824859;
	name 980396;
	longitude 13.0985811743;
	to node980393980396;
	length 300;
	latitude 1185.90686251;
	configuration 825694-LINECONFIG;
};

object overhead_line {
	phases CN;
	from node980393980396;
	name 980393;
	to node824860980393;
	longitude 13.0996641387;
	length 143;
	latitude 1185.84927498;
	configuration 825694-LINECONFIG;
};

object overhead_line {
	phases CN;
	from node824860980393;
	name 824860;
	longitude 13.1050789607;
	to node923236824860;
	length 143;
	latitude 1185.77531452;
	configuration 825694-LINECONFIG;
};

object overhead_line {
	phases CN;
	from node923236824860;
	name 923236;
	longitude 13.1148256402;
	to node923237923236;
	length 264;
	latitude 1185.62513526;
	configuration 825694-LINECONFIG;
};

object overhead_line {
	phases CN;
	from node923237923236;
	name 923237;
	longitude 13.1354019636;
	to node923238923237;
	length 257;
	latitude 1185.47834351;
	configuration 825694-LINECONFIG;
};

object overhead_line {
	phases CN;
	from node923238923237;
	name 923238;
	longitude 13.1354019636;
	to node824862923238;
	length 293;
	latitude 1185.3129205;
	configuration 825694-LINECONFIG;
};

object overhead_line {
	phases CN;
	from node824862923238;
	name 824862;
	longitude 13.1408167855;
	to node923239824862;
	length 321;
	latitude 1185.17572667;
	configuration 825694-LINECONFIG;
};

object overhead_line {
	phases CN;
	from node923239824862;
	name 923239;
	longitude 13.1473145718;
	to node923240923239;
	length 252;
	latitude 1185.032887;
	configuration 825694-LINECONFIG;
};

object overhead_line {
	phases CN;
	from node923240923239;
	name 923240;
	longitude 13.1548953226;
	to node923241923240;
	length 249;
	latitude 1184.89230567;
	configuration 825694-LINECONFIG;
};

object overhead_line {
	phases CN;
	from node923241923240;
	name 923241;
	to node923242923241;
	longitude 13.1603101445;
	length 258;
	latitude 1184.74664308;
	configuration 825694-LINECONFIG;
};

object overhead_line {
	phases C;
	from node923242923241;
	name 923242;
	longitude 13.1678908952;
	to nodeF7815x1923242;
	length 270;
	latitude 1184.61678884;
	configuration 825694-LINECONFIG;
};

object fuse {
	phases C;
	from nodeF7815x1923242;
	name F7815x1;
	current_limit 9999.0 A;
	longitude 13.1678908952;
	to node922977F7815x1;
	latitude 1184.61678884;
};

object underground_line {
	phases C;
	from node922977F7815x1;
	name 922977;
	longitude 13.189550183;
	to node922975922977;
	length 56;
	latitude 1184.59420549;
	configuration 925975-LINECONFIG;
};

object underground_line {
	phases C;
	from node922975922977;
	name 922975;
	longitude 13.1873842543;
	to node922976922975;
	length 150;
	latitude 1184.48919293;
	configuration 925975-LINECONFIG;
};

object underground_line {
	phases C;
	from node922976922975;
	name 922976;
	longitude 14.465282234;
	to nodeT12925922976;
	length 1320;
	latitude 1184.4970971;
	configuration 925975-LINECONFIG;
};

object underground_line {
	phases C;
	from node922976922975;
	name 922978;
	to node922979922978;
	longitude 13.0097780944;
	length 1300;
	latitude 1183.80548211;
	configuration 925975-LINECONFIG;
};

object underground_line {
	phases C;
	from node922979922978;
	name 922979;
	longitude 12.9458831954;
	to node922980922979;
	length 30;
	latitude 1183.80491752;
	configuration 925975-LINECONFIG;
};

object underground_line {
	phases C;
	from node922980922979;
	name 922980;
	longitude 12.2549519148;
	to node1807-0304922980;
	length 597;
	latitude 1183.78402793;
	configuration 925975-LINECONFIG;
};

object underground_line {
	phases C;
	from node922979922978;
	name 922981;
	longitude 13.0379351685;
	to node824871922981;
	length 25;
	latitude 1183.76313833;
	configuration 925975-LINECONFIG;
};

object underground_line {
	phases C;
	from node824871922981;
	name 824871;
	longitude 13.0336033109;
	to node922983824871;
	length 372;
	latitude 1183.59545698;
	configuration 825688-LINECONFIG;
};

object underground_line {
	phases C;
	from node922983824871;
	name 922983;
	longitude 13.0206077383;
	to node1807-0292922983;
	length 1250;
	latitude 1182.8897274;
	configuration 825688-LINECONFIG;
};

object underground_line {
	phases C;
	from node980393980396;
	name 980395;
	longitude 14.3786450828;
	to node980394980395;
	length 1162;
	latitude 1185.91646044;
	configuration 925975-LINECONFIG;
};

object overhead_line {
	phases CN;