clock {
	timezone PST+8PDT;
	starttime '2000-01-01 00:00:00';
	stoptime '2000-01-02 00:00:00';
};

#include "schedules.glm";
#set minimum_timestep=60;
#set profiler=1;
#set relax_naming_rules=1;
module generators;
module tape;
module climate;
module residential {
	implicit_enduses NONE;
};

module powerflow {
	solver_method NR;
	NR_iteration_limit 50;
};

object climate {
	name Climate;
	interpolate QUADRATIC;
	tmyfile climate.tmy2;
};

object node {
	phases ABCN;
	name FRIENDSHIP;
	bustype SWING;
	longitude 52.1367787787;
	nominal_voltage 7200.0;
	latitude 1185.83708957;
};

object regulator_configuration {
	Control OUTPUT_VOLTAGE;
	Type A;
	raise_taps 16.0;
	name REG27-CONFIG;
	band_center 123.9996;
	current_transducer_ratio 328;
	tap_pos_B 1;
	tap_pos_C 1;
	time_delay 30.0;
	connect_type WYE_WYE;
	regulation 0.1;
	CT_phase ABC;
	power_transducer_ratio 60.0;
	lower_taps 16.0;
	tap_pos_A 1;
	control_level INDIVIDUAL;
	PT_phase ABC;
	band_width 2.000004;
};

object regulator {
	phases ACB;
	from FRIENDSHIP;
	name REG27;
	longitude 51.799687817;
	to node958175REG27;
	latitude 1184.16123001;
	configuration REG27-CONFIG;
};

object underground_line {
	phases ACB;
	from node958175REG27;
	name 958175;
	longitude 52.0983344243;
	to nodeRFRN1-R0001x1958175;
	length 24;
	latitude 1185.83477952;
	configuration 978204-LINECONFIG;
};

object fuse {
	phases ACB;
	from nodeRFRN1-R0001x1958175;
	name RFRN1-R0001x1;
	current_limit 9999.0 A;
	longitude 52.0983344243;
	to node958178RFRN1-R0001x1;
	latitude 1185.83477952;
};

object underground_line {
	phases ACB;
	from node958178RFRN1-R0001x1;
	name 958178;
	to node958179958178;
	longitude 51.522708145;
	length 780;
	latitude 1185.94566187;
	configuration 978204-LINECONFIG;
};

object underground_line {
	phases ACB;
	from node958179958178;
	name 958179;
	longitude 50.8421391686;
	to node978195958179;
	length 860;
	latitude 1185.81398908;
	configuration 978204-LINECONFIG;
};

object underground_line_conductor {
	conductor_gmr 0.02603;
	conductor_resistance 0.23232;
	shield_resistance 0.000000;
	neutral_gmr 0.0317574;
	neutral_strands 16;
	conductor_diameter 0.810000;
	name 978195-LINECONFIGunderground_line_conductor604;
	insulation_relative_permitivitty 2.4;
	outer_diameter 1.580004;
	neutral_resistance 702.24;
	neutral_diameter 0.160008;
	shield_gmr 0.000000;
};

object underground_line {
	phases ACB;
	from node978195958179;
	name 978195;
	longitude 48.8710867284;
	to node978172978195;
	length 1970;
	latitude 1185.8053264;
	configuration 978204-LINECONFIG;
};

object underground_line {
	phases ACB;
	from node978172978195;
	name 978172;
	longitude 48.0834969816;
	to node978174978172;
	length 780;
	latitude 1185.80879147;
	configuration 978204-LINECONFIG;
};

object underground_line {
	phases B;
	from node978174978172;
	name 978174;
	longitude 48.0886921646;
	to nodeF28653x1978174;
	length 30;
	latitude 1185.81745415;
	configuration 929369-LINECONFIG;
};

object fuse {
	phases B;
	from nodeF28653x1978174;
	name F28653x1;
	current_limit 9999.0 A;
	longitude 48.0886921646;
	to node978192F28653x1;
	latitude 1185.81745415;
};

object underground_line {
	phases B;
	from node978192F28653x1;
	name 978192;
	longitude 48.1551905074;
	to node949317978192;
	length 40;
	latitude 1185.8197642;
	configuration 929369-LINECONFIG;
};

object underground_line {
	phases B;
	from node949317978192;
	name 949317;
	longitude 48.0741456522;
	to node949318949317;
	length 469;
	latitude 1186.07271457;
	configuration 929369-LINECONFIG;
};

object underground_line {
	phases B;
	from node949318949317;
	name 949318;
	to nodeT14104949318;
	longitude 48.0751846888;
	length 519;
	latitude 1186.37302094;
	configuration 929369-LINECONFIG;
};

object underground_line {
	phases B;
	from node949318949317;
	name 949319;
	longitude 48.0388184076;
	to nodeT14100949319;
	length 40;
	latitude 1186.06809447;
	configuration 929369-LINECONFIG;
};

object underground_line {
	phases C;
	from node978174978172;
	name 978200;
	to nodeR2911x1978200;
	longitude 48.3453342061;
	length 314;
	latitude 1185.83708957;
	configuration 970069-LINECONFIG;
};

object fuse {
	phases C;
	from nodeR2911x1978200;
	name R2911x1;
	current_limit 9999.0 A;
	longitude 48.3453342061;
	to node839461R2911x1;
	latitude 1185.83708957;
};

object overhead_line {
	phases CN;
	from node839461R2911x1;
	name 839461;
	longitude 48.3505293892;
	to node839464839461;
	length 60;
	latitude 1185.89195323;
	configuration 840428-LINECONFIG;
};

object overhead_line {
	phases CN;
	from node839464839461;
	name 839464;
	longitude 48.3505293892;
	to node839466839464;
	length 111;
	latitude 1185.93873173;
	configuration 840428-LINECONFIG;
};

object overhead_line {
	phases CN;
	from node839466839464;
	name 839466;
	longitude 48.3370219133;
	to node839469839466;
	length 207;
	latitude 1186.07617964;
	configuration 840428-LINECONFIG;
};

object overhead_line {
	phases CN;
	from node839469839466;
	name 839469;
	longitude 48.3380609499;
	to node839471839469;
	length 226;
	latitude 1186.20669741;
	configuration 840428-LINECONFIG;
};

object overhead_line {
	phases CN;
	from node839471839469;
	name 839471;
	longitude 48.3453342061;
	to node956777839471;
	length 120;
	latitude 1186.27599888;
	configuration 840428-LINECONFIG;
};

object overhead_line {
	phases CN;
	from node956777839471;
	name 956777;
	longitude 48.4648234157;
	to node839473956777;
	length 130;
	latitude 1186.31122713;
	configuration 840428-LINECONFIG;
};

object overhead_line {
	phases CN;
	from node839473956777;
	name 839473;
	to node839475839473;
	longitude 48.5863906985;
	length 226;
	latitude 1186.42268699;
	configuration 840428-LINECONFIG;
};

object overhead_line {
	phases CN;
	from node839475839473;
	name 839475;
	longitude 48.566649003;
	to node839477839475;
	length 262;
	latitude 1186.5693751;
	configuration 840428-LINECONFIG;
};

object overhead_line {
	phases CN;
	from node839477839475;
	name 839477;
	longitude 48.645615785;
	to node839479839477;
	length 81;
	latitude 1186.61384355;
	configuration 840428-LINECONFIG;
};

object overhead_line {
	phases CN;
	from node839479839477;
	name 839479;
	longitude 48.6206789065;
	to node839481839479;
	length 243;
	latitude 1186.75360151;
	configuration 840428-LINECONFIG;
};

object overhead_line {
	phases CN;
	from node839481839479;
	name 839481;
	longitude 48.6321083092;
	to node839483839481;
	length 183;
	latitude 1186.85928625;
	configuration 840428-LINECONFIG;
};

object overhead_line {
	phases CN;
	from node839483839481;
	name 839483;
	longitude 48.6414596386;
	to node839484839483;
	length 98;
	latitude 1186.91588245;
	configuration 840428-LINECONFIG;
};

object overhead_line {
	phases CN;
	from node839484839483;
	name 839484;
	longitude 48.6424986752;
	to node839486839484;
	length 10;
	latitude 1186.92050255;
	configuration 840428-LINECONFIG;
};

object overhead_line {
	phases CN;
	from node839486839484;
	name 839486;
	longitude 48.6788649564;
	to node839488839486;
	length 223;
	latitude 1187.04755525;
	configuration 840428-LINECONFIG;
};

object overhead_line {
	phases CN;
	from node839488839486;
	name 839488;
	to node839490839488;
	longitude 48.7744563241;
	length 219;
	latitude 1187.16536775;
	configuration 840428-LINECONFIG;
};

object overhead_line {
	phases CN;
	from node839490839488;
	name 839490;
	longitude 48.748480409;
	to node839491839490;
	length 178;
	latitude 1187.26758741;
	configuration 840428-LINECONFIG;
};

object overhead_line {
	phases CN;
	from node839491839490;
	name 839491;
	longitude 48.7121141278;
	to node974130839491;
	length 135;
	latitude 1187.34266401;
	configuration 840428-LINECONFIG;
};

object overhead_line {
	phases CN;
	from node974130839491;
	name 974130;
	longitude 48.679903993;
	to node839493974130;
	length 120;
	latitude 1187.40965543;
	configuration 840428-LINECONFIG;
};

object overhead_line {
	phases CN;
	from node839493974130;
	name 839493;
	longitude 48.6092495039;
	to node839496839493;
	length 261;
	latitude 1187.55576603;
	configuration 840428-LINECONFIG;
};

object overhead_line {
	phases CN;
	from node839496839493;
	name 839496;
	longitude 48.5947029914;
	to node839497839496;
	length 56;
	latitude 1187.58695169;
	configuration 840428-LINECONFIG;
};

object overhead_line {
	phases CN;
	from node839497839496;
	name 839497;
	longitude 48.5188533192;
	to node839499839497;
	length 191;
	latitude 1187.68917136;
	configuration 840428-LINECONFIG;
};

object overhead_line {
	phases CN;
	from node839499839497;
	name 839499;
	longitude 48.4305352078;
	to node839502839499;
	length 223;
	latitude 1187.80813888;
	configuration 840428-LINECONFIG;
};

object overhead_line {
	phases CN;
	from node839502839499;
	name 839502;
	to node839503839502;
	longitude 48.3733881945;
	length 91;
	latitude 1187.86242503;
	configuration 840428-LINECONFIG;
};

object overhead_line {
	phases C;
	from node839503839502;
	name 839503;
	longitude 48.2881871928;
	to node839505839503;
	length 134;
	latitude 1187.8843705;
	configuration 840428-LINECONFIG;
};

object underground_line {
	phases C;
	from node839505839503;
	name 839505;
	longitude 48.290265266;
	to nodeFFRN1-F008x1839505;
	length 18;
	latitude 1187.89245567;
	configuration 906381-LINECONFIG;
};

object fuse {
	phases C;
	from nodeFFRN1-F008x1839505;
	name FFRN1-F008x1;
	current_limit 9999.0 A;
	longitude 48.290265266;
	to node839506FFRN1-F008x1;
	latitude 1187.89245567;
};

object underground_line {
	phases C;
	from node839506FFRN1-F008x1;
	name 839506;
	longitude 48.3152021446;
	to node839509839506;
	length 65;
	latitude 1187.93345904;
	configuration 906381-LINECONFIG;
};

object underground_line {
	phases C;
	from node839509839506;
	name 839509;
	longitude 48.3266315472;
	to node839511839509;
	length 136;
	latitude 1188.00911314;
	configuration 906381-LINECONFIG;
};

object underground_line {
	phases C;
	from node839511839509;
	name 839511;
	longitude 48.2996165955;
	to node839512839511;
	length 53;
	latitude 1188.04145383;
	configuration 906381-LINECONFIG;
};

object underground_line {
	phases C;
	from node839512839511;
	name 839512;
	longitude 48.2788358634;
	to node839514839512;
	length 206;
	latitude 1188.15984384;
	configuration 906381-LINECONFIG;
};

object underground_line {
	phases C;
	from node839514839512;
	name 839514;
	to node910237839514;
	longitude 48.0938873477;
	length 184;
	latitude 1188.1719716;
	configuration 906381-LINECONFIG;
};

object underground_line {
	phases C;
	from node910237839514;
	name 910237;
	longitude 48.0855750548;
	to node906381910237;
	length 129;
	latitude 1188.24531565;
	configuration 906381-LINECONFIG;
};

object line_configuration {
	name 906381-LINECONFIG;
	spacing 841826-LINESPACING;
	conductor_C 841826-LINECONFIGunderground_line_conductor393204;
};

object underground_line {
	phases C;
	from node906381910237;
	name 906381;
	longitude 48.0834969816;
	to node839516906381;
	length 134;
	latitude 1188.3227023;
	configuration 906381-LINECONFIG;
};

object underground_line {
	phases C;
	from node839516906381;
	name 839516;
	longitude 48.0834969816;
	to node839517839516;
	length 40;
	latitude 1188.34580279;
	configuration 906381-LINECONFIG;
};

object underground_line {
	phases C;
	from node839517839516;
	name 839517;
	longitude 48.0814189084;
	to node839519839517;
	length 165;
	latitude 1188.44109231;
	configuration 906381-LINECONFIG;
};

object underground_line {
	phases C;
	from node839519839517;
	name 839519;
	longitude 48.0793408352;
	to node839521839519;
	length 174;
	latitude 1188.54157944;
	configuration 906381-LINECONFIG;
};

object underground_line {
	phases C;
	from node839521839519;
	name 839521;
	longitude 47.890236173;
	to node1806-0087839521;
	length 331;
	latitude 1188.70097282;
	configuration 906381-LINECONFIG;
};

object underground_line {
	phases C;
	from node906381910237;
	name 906382;
	to nodeT4303906382;
	longitude 47.8788067704;
	length 194;
	latitude 1188.24935824;
	configuration 970069-LINECONFIG;
};

object underground_line {
	phases C;
	from node910237839514;
	name 910238;
	longitude 47.9058217221;
	to nodeT4006910238;
	length 204;
	latitude 1188.14020842;
	configuration 970069-LINECONFIG;
};

object underground_line {
	phases C;
	from node839512839511;
	name 970774;
	longitude 48.3598807186;
	to nodeT28678970774;
	length 80;
	latitude 1188.11017779;
	configuration 970069-LINECONFIG;
};

object line_configuration {
	name 978204-LINECONFIG;
	spacing 917232-LINESPACING;
	conductor_A 978195-LINECONFIGunderground_line_conductor604;
	conductor_C 978195-LINECONFIGunderground_line_conductor604;
	conductor_B 978195-LINECONFIGunderground_line_conductor604;
};

object underground_line {
	phases ACB;
	from node978174978172;
	name 978204;
	longitude 48.0627162495;
	to node978186978204;
	length 66;
	latitude 1185.80994649;
	configuration 978204-LINECONFIG;
};

object overhead_line {
	phases ACBN;
	from node978186978204;
	name 978186;
	to node978169978186;
	longitude 47.7863325125;
	length 270;
	latitude 1185.81167903;
	configuration 978187-LINECONFIG;
};

object overhead_line {
	phases ACBN;
	from node978169978186;
	name 978169;
	longitude 47.5442369835;
	to node978180978169;
	length 230;
	latitude 1185.81283405;
	configuration 978187-LINECONFIG;
};

object overhead_line {
	phases ACBN;
	from node978180978169;
	name 978180;
	longitude 47.3561713579;
	to node978184978180;
	length 180;
	latitude 1185.81456659;
	configuration 978187-LINECONFIG;
};

object overhead_line {
	phases ACBN;
	from node978184978180;
	name 978184;
	longitude 47.1566763297;
	to node978198978184;
	length 188;
	latitude 1185.81456659;
	configuration 978187-LINECONFIG;
};

object overhead_line {
	phases ACBN;
	from node978198978184;
	name 978198;
	longitude 46.8449653481;
	to node978173978198;
	length 297;
	latitude 1185.81572162;
	configuration 978187-LINECONFIG;
};

object overhead_line {
	phases ACBN;
	from node978173978198;
	name 978173;
	longitude 46.6101430753;
	to node978185978173;
	length 225;
	latitude 1185.81687664;
	configuration 978187-LINECONFIG;
};

object overhead_line_conductor {
	diameter 0.721;
	name 978185_conductor_B;
	geometric_mean_radius 0.0304;
	resistance 0.216;
};

object overhead_line {
	phases ACBN;
	from node978185978173;
	name 978185;
	longitude 46.3753208026;
	to node978190978185;
	length 225;
	latitude 1185.81860918;
	configuration 978187-LINECONFIG;
};

object overhead_line {
	phases ACBN;
	from node978190978185;
	name 978190;
	longitude 46.1394594932;
	to node978196978190;
	length 225;
	latitude 1185.81918669;
	configuration 978187-LINECONFIG;
};

object overhead_line {
	phases ACBN;
	from node978196978190;
	name 978196;
	to node978178978196;
	longitude 45.9077543302;
	length 225;
	latitude 1185.82091923;
	configuration 978187-LINECONFIG;
};

object overhead_line {
	phases ACBN;
	from node978178978196;
	name 978178;
	longitude 45.6168240807;
	to node978171978178;
	length 280;
	latitude 1185.8243843;
	configuration 978187-LINECONFIG;
};

object overhead_line {
	phases ACBN;
	from node978171978178;
	name 978171;
	longitude 45.3861579543;
	to node978175978171;
	length 250;
	latitude 1185.82496181;
	configuration 978187-LINECONFIG;
};

object overhead_line {
	phases ACBN;
	from node978175978171;
	name 978175;
	longitude 45.1523747182;
	to node978181978175;
	length 225;
	latitude 1185.82669435;
	configuration 978187-LINECONFIG;
};

object overhead_line {
	phases ACBN;
	from node978181978175;
	name 978181;
	longitude 44.918591482;
	to node978197978181;
	length 225;
	latitude 1185.82842689;
	configuration 978187-LINECONFIG;
};

object overhead_line {
	phases ACBN;
	from node978197978181;
	name 978197;
	longitude 44.6380515986;
	to node978176978197;
	length 225;
	latitude 1185.83073693;
	configuration 978187-LINECONFIG;
};

object overhead_line {
	phases ACBN;
	from node978176978197;
	name 978176;
	longitude 44.4281662043;
	to node978189978176;
	length 203;
	latitude 1185.83131445;
	configuration 978187-LINECONFIG;
};

object overhead_line {
	phases ACBN;
	from node978189978176;
	name 978189;
	longitude 44.2172417734;
	to node978202978189;
	length 203;
	latitude 1185.83420201;
	configuration 978187-LINECONFIG;
};

object overhead_line {
	phases ACBN;
	from node978202978189;
	name 978202;
	to node978182978202;
	longitude 44.0083954158;
	length 203;
	latitude 1185.83593454;
	configuration 978187-LINECONFIG;
};

object overhead_line {
	phases BN;
	from node978182978202;
	name 978182;
	longitude 43.9990440863;
	to node978177978182;
	length 75;
	latitude 1185.88040299;
	configuration 985054-LINECONFIG;
};

object overhead_line {
	phases BN;
	from node978177978182;
	name 978177;
	longitude 44.0000831229;
	to node841713978177;
	length 82;
	latitude 1185.93006904;
	configuration 985054-LINECONFIG;
};

object overhead_line {
	phases B;
	from node841713978177;
	name 841713;
	longitude 44.0011221595;
	to nodeR2909x1841713;
	length 10;
	latitude 1185.94046426;
	configuration 985054-LINECONFIG;
};

object fuse {
	phases B;
	from nodeR2909x1841713;
	name R2909x1;
	current_limit 9999.0 A;
	longitude 44.0011221595;
	to node841714R2909x1;
	latitude 1185.94046426;
};

object overhead_line {
	phases BN;
	from node841714R2909x1;
	name 841714;
	longitude 44.0270980747;
	to node841715841714;
	length 509;
	latitude 1186.22575531;
	configuration 985054-LINECONFIG;
};

object overhead_line {
	phases BN;
	from node841715841714;
	name 841715;
	longitude 44.0270980747;
	to node969649841715;
	length 40;
	latitude 1186.2488558;
	configuration 985054-LINECONFIG;
};

object overhead_line {
	phases BN;
	from node969649841715;
	name 969649;
	longitude 44.0239809648;
	to node841718969649;
	length 440;
	latitude 1186.50296119;
	configuration 985054-LINECONFIG;
};

object overhead_line {
	phases BN;
	from node841718969649;
	name 841718;
	to node841719841718;
	longitude 44.015668672;
	length 1043;
	latitude 1187.10530647;
	configuration 985054-LINECONFIG;
};

object overhead_line {
	phases BN;
	from node841719841718;
	name 841719;
	longitude 43.8338372661;
	to node841720841719;
	length 290;
	latitude 1187.2387118;
	configuration 985054-LINECONFIG;
};

object overhead_line {
	phases BN;
	from node841720841719;
	name 841720;
	longitude 44.0187857818;
	to node841722841720;
	length 233;
	latitude 1187.32533864;
	configuration 985054-LINECONFIG;
};

object overhead_line {
	phases BN;
	from node841722841720;
	name 841722;
	longitude 44.0125515622;
	to node841723841722;
	length 143;
	latitude 1187.40792289;
	configuration 985054-LINECONFIG;
};

object overhead_line {
	phases B;
	from node841723841722;
	name 841723;
	longitude 44.0904793076;
	to nodeFFRN1-F011x1841723;
	length 75;
	latitude 1187.40676787;
	configuration 985054-LINECONFIG;
};

object fuse {
	phases B;
	from nodeFFRN1-F011x1841723;
	name FFRN1-F011x1;
	current_limit 9999.0 A;
	longitude 44.0904793076;
	to node841724FFRN1-F011x1;
	latitude 1187.40676787;
};

object underground_line {
	phases B;
	from node841724FFRN1-F011x1;
	name 841724;
	longitude 44.1746412726;
	to node841725841724;
	length 81;
	latitude 1187.40734538;
	configuration 841826-LINECONFIG;
};

object underground_line {
	phases B;
	from node841725841724;
	name 841725;
	longitude 44.3149112143;
	to node1806-0099841725;
	length 135;
	latitude 1187.40792289;
	configuration 841826-LINECONFIG;
};

object overhead_line {
	phases B;
	from node841723841722;
	name 841739;
	longitude 43.6686304459;
	to node1806-28-011841739;
	length 331;
	latitude 1187.41254299;
	configuration 985054-LINECONFIG;
};

object overhead_line {
	phases BN;
	from node841723841722;
	name 841740;
	longitude 44.0094344524;
	to node841727841740;
	length 356;
	latitude 1187.61351725;
	configuration 985054-LINECONFIG;
};

object underground_line {
	phases B;
	from node841727841740;
	name 841727;
	longitude 44.0250200015;
	to nodeF18526x1841727;
	length 30;
	latitude 1187.61293974;
	configuration 841826-LINECONFIG;
};

object fuse {
	phases B;
	from nodeF18526x1841727;
	name F18526x1;
	current_limit 9999.0 A;
	longitude 44.0250200015;
	to node939255F18526x1;
	latitude 1187.61293974;
};

object underground_line {
	phases B;
	from node939255F18526x1;
	name 939255;
	longitude 44.3169892875;
	to node841728939255;
	length 281;
	latitude 1187.61524979;
	configuration 841826-LINECONFIG;
};

object underground_line {
	phases B;
	from node841728939255;
	name 841728;
	longitude 44.5809045853;
	to node1806-0098841728;
	length 254;
	latitude 1187.61062969;
	configuration 841826-LINECONFIG;
};

object overhead_line {
	phases BN;
	from node841727841740;
	name 939235;
	longitude 44.0073563792;
	to node841734939235;
	length 338;
	latitude 1187.77348815;
	configuration 985054-LINECONFIG;
};

object underground_line {
	phases B;
	from node841734939235;
	name 841734;
	to nodeF18527x1841734;
	longitude 44.0239809648;
	length 16;
	latitude 1187.77348815;
	configuration 841826-LINECONFIG;
};

object fuse {
	phases B;
	from nodeF18527x1841734;
	name F18527x1;
	current_limit 9999.0 A;
	longitude 44.0239809648;
	to node939275F18527x1;
	latitude 1187.77348815;
};

object underground_line {
	phases B;
	from node939275F18527x1;
	name 939275;
	longitude 44.3190673607;
	to node841736939275;
	length 312;
	latitude 1187.74750009;
	configuration 841826-LINECONFIG;
};

object underground_line {
	phases B;
	from node841736939275;
	name 841736;
	longitude 44.4229710213;
	to nodeT18549841736;
	length 126;
	latitude 1187.76367044;
	configuration 841826-LINECONFIG;
};

object overhead_line {
	phases BN;
	from node841734939235;
	name 841742;
	longitude 44.0032002327;
	to node841744841742;
	length 565;
	latitude 1188.13501081;
	configuration 985054-LINECONFIG;
};

object overhead_line {
	phases BN;
	from node841744841742;
	name 841744;
	longitude 44.0011221595;
	to node841748841744;
	length 302;
	latitude 1188.30941951;
	configuration 985054-LINECONFIG;
};

object overhead_line {
	phases B;
	from node841748841744;
	name 841748;
	longitude 43.9948879399;
	to node923535841748;
	length 869;
	latitude 1188.83957576;
	configuration 985054-LINECONFIG;
};

object underground_line {
	phases B;
	from node923535841748;
	name 923535;
	longitude 44.0198248184;
	to node923536923535;
	length 20;
	latitude 1188.80203746;
	configuration 929369-LINECONFIG;
};

object underground_line {
	phases B;
	from node923536923535;
	name 923536;
	longitude 42.623359621;
	to node841999923536;
	length 1275;
	latitude 1188.82109537;
	configuration 929369-LINECONFIG;
};

object underground_line {
	phases B;
	from node841999923536;
	name 841999;
	longitude 42.6295938406;
	to nodeT10512841999;
	length 510;
	latitude 1189.07289071;
	configuration 929369-LINECONFIG;
};

object underground_line {
	phases B;
	from node841999923536;
	name 923537;
	longitude 42.2773604314;
	to nodeT10513923537;
	length 465;
	latitude 1189.01975958;
	configuration 929369-LINECONFIG;
};

object underground_line {
	phases B;
	from node841999923536;
	name 923538;
	longitude 41.0751950791;
	to node841997923538;
	length 1385;
	latitude 1188.77373936;
	configuration 929369-LINECONFIG;
};

object underground_line {
	phases B;
	from node841997923538;
	name 841997;
	longitude 40.8777781241;
	to nodeT10515841997;
	length 1271;
	latitude 1188.02181841;
	configuration 929369-LINECONFIG;
};

object underground_line {
	phases B;
	from node923536923535;
	name 923594;
	to node923593923594;
	longitude 44.1310017352;
	length 134;
	latitude 1188.8366882;
	configuration 929369-LINECONFIG;
};

object overhead_line {
	phases BN;
	from node923593923594;
	name 923593;
	longitude 44.4125806552;
	to node841751923593;
	length 304;
	latitude 1188.83264561;
	configuration 985054-LINECONFIG;
};

object underground_line {
	phases B;
	from node841751923593;
	name 841751;
	longitude 44.4998597301;
	to nodeFFRN1-F081x1841751;
	length 104;
	latitude 1188.79741737;
	configuration 929369-LINECONFIG;
};

object fuse {
	phases B;
	from nodeFFRN1-F081x1841751;
	name FFRN1-F081x1;
	current_limit 9999.0 A;
	longitude 44.4998597301;
	to node841752FFRN1-F081x1;
	latitude 1188.79741737;
};

object underground_line {
	phases B;
	from node841752FFRN1-F081x1;
	name 841752;
	longitude 44.494664547;
	to node1806-0198841752;
	length 604;
	latitude 1188.44859997;
	configuration 929369-LINECONFIG;
};

object overhead_line {
	phases BN;
	from node841751923593;
	name 841754;
	longitude 44.4863522542;
	to node841755841754;
	length 71;
	latitude 1188.83091308;
	configuration 985054-LINECONFIG;
};

object overhead_line {
	phases BN;
	from node841755841754;
	name 841755;
	to node841757841755;
	longitude 44.7024718681;
	length 208;
	latitude 1188.827448;
	configuration 985054-LINECONFIG;
};

object overhead_line {
	phases BN;
	from node841757841755;
	name 841757;
	longitude 45.0495100942;
	to node841759841757;
	length 334;
	latitude 1188.82109537;
	configuration 985054-LINECONFIG;
};

object overhead_line {
	phases BN;
	from node841759841757;
	name 841759;
	longitude 45.4152509793;
	to node841760841759;
	length 352;
	latitude 1188.81474273;
	configuration 985054-LINECONFIG;
};

object overhead_line {
	phases BN;
	from node841760841759;
	name 841760;
	longitude 45.6334486664;
	to node841762841760;
	length 210;
	latitude 1188.81127766;
	configuration 985054-LINECONFIG;
};

object overhead_line {
	phases BN;
	from node841762841760;
	name 841762;
	longitude 45.6656588012;
	to node841763841762;
	length 31;
	latitude 1188.81070015;
	configuration 985054-LINECONFIG;
};

object underground_line {
	phases B;
	from node841763841762;
	name 841763;
	longitude 45.6656588012;
	to nodeFFRN1-F140x1841763;
	length 18;
	latitude 1188.82109537;
	configuration 929369-LINECONFIG;
};

object fuse {
	phases B;
	from nodeFFRN1-F140x1841763;
	name FFRN1-F140x1;
	current_limit 9999.0 A;
	longitude 45.6656588012;
	to node841764FFRN1-F140x1;
	latitude 1188.82109537;
};

object underground_line {
	phases B;
	from node841764FFRN1-F140x1;
	name 841764;
	longitude 45.6615026547;
	to node1806-0062841764;
	length 400;
	latitude 1189.05210027;
	configuration 929369-LINECONFIG;
};

object overhead_line {
	phases BN;
	from node841763841762;
	name 841766;
	longitude 46.0313996862;
	to node841767841766;
	length 352;
	latitude 1188.80377;
	configuration 985054-LINECONFIG;
};

object underground_line {
	phases B;
	from node841767841766;
	name 841767;
	longitude 46.0334777594;
	to nodeFFRN1-F176x1841767;
	length 54;
	latitude 1188.77258434;
	configuration 929369-LINECONFIG;
};

object fuse {
	phases B;
	from nodeFFRN1-F176x1841767;
	name FFRN1-F176x1;
	current_limit 9999.0 A;
	longitude 46.0334777594;
	to node841768FFRN1-F176x1;
	latitude 1188.77258434;
};

object underground_line {
	phases B;
	from node841768FFRN1-F176x1;
	name 841768;
	longitude 46.0501023451;
	to node1806-0088841768;
	length 577;
	latitude 1188.43935977;
	configuration 929369-LINECONFIG;
};

object overhead_line {
	phases BN;
	from node841767841766;
	name 841770;
	to node923342841770;
	longitude 46.3867502052;
	length 342;
	latitude 1188.79741737;
	configuration 985054-LINECONFIG;
};

object overhead_line {
	phases BN;
	from node923342841770;
	name 923342;
	longitude 46.5280591835;
	to node841771923342;
	length 136;
	latitude 1188.79510732;
	configuration 985054-LINECONFIG;
};

object underground_line {
	phases B;
	from node841771923342;
	name 841771;
	longitude 46.7317103582;
	to nodeFFRN1-F196x1841771;
	length 197;
	latitude 1188.78528961;
	configuration 929369-LINECONFIG;
};

object fuse {
	phases B;
	from nodeFFRN1-F196x1841771;
	name FFRN1-F196x1;
	current_limit 9999.0 A;
	longitude 46.7317103582;
	to node841772FFRN1-F196x1;
	latitude 1188.78528961;
};

object underground_line {
	phases B;
	from node841772FFRN1-F196x1;
	name 841772;
	longitude 46.7410616876;
	to node1806-0190841772;
	length 210;
	latitude 1188.66401204;
	configuration 929369-LINECONFIG;
};

object overhead_line {
	phases BN;
	from node841771923342;
	name 841775;
	to node926654841775;
	longitude 46.5332543666;
	length 1192;
	latitude 1188.10671271;
	configuration 985054-LINECONFIG;
};

object overhead_line {
	phases B;
	from node926654841775;
	name 926654;
	longitude 46.5405276228;
	to node1806-33-057926654;
	length 1630;
	latitude 1187.16536775;
	configuration 985054-LINECONFIG;
};

object underground_line {
	phases B;
	from node841755841754;
	name 841777;
	longitude 44.4873912908;
	to nodeFFRN1-F217x1841777;
	length 96;
	latitude 1188.8413083;
	configuration 929369-LINECONFIG;
};

object fuse {
	phases B;
	from nodeFFRN1-F217x1841777;
	name FFRN1-F217x1;
	current_limit 9999.0 A;
	longitude 44.4873912908;
	to node841778FFRN1-F217x1;
	latitude 1188.8413083;
};

object underground_line {
	phases B;
	from node841778FFRN1-F217x1;
	name 841778;
	longitude 44.4863522542;
	to node1806-0245841778;
	length 646;
	latitude 1189.25942717;
	configuration 929369-LINECONFIG;
};

object underground_line {
	phases B;
	from node923536923535;
	name 923596;
	longitude 44.0250200015;
	to node923597923596;
	length 165;
	latitude 1188.95507821;
	configuration 929369-LINECONFIG;
};

object underground_line {
	phases B;
	from node923597923596;
	name 923597;
	longitude 44.0561910996;
	to nodeT10500923597;
	length 20;
	latitude 1188.98164377;
	configuration 929369-LINECONFIG;
};

object underground_line {
	phases B;
	from node923597923596;
	name 923599;
	longitude 43.9772243176;
	to node923601923599;
	length 300;
	latitude 1189.16529267;
	configuration 929369-LINECONFIG;
};

object underground_line {
	phases B;
	from node923601923599;
	name 923601;
	longitude 43.7538314475;
	to nodeT10502923601;
	length 200;
	latitude 1189.14623476;
	configuration 929369-LINECONFIG;
};

object underground_line {
	phases B;
	from node923601923599;
	name 923604;
	longitude 43.970990098;
	to node923605923604;
	length 275;
	latitude 1189.37839469;
	configuration 929369-LINECONFIG;
};

object underground_line {
	phases B;
	from node923605923604;
	name 923605;
	longitude 43.7434410814;
	to node921618923605;
	length 239;
	latitude 1189.38763489;
	configuration 929369-LINECONFIG;
};

object underground_line {
	phases B;
	from node921618923605;
	name 921618;
	longitude 43.4275739534;
	to node921620921618;