clock {
	timezone PST+8PDT;
	starttime '2000-01-01 00:00:00';
	stoptime '2000-01-01 00:00:00';
};

#set minimum_timestep=60;
#set profiler=1;
#set relax_naming_rules=1;
module generators;
module tape;
module residential {
	implicit_enduses NONE;
};

module powerflow {
	solver_method NR;
	NR_iteration_limit 50;
};

object node {
	phases ABCN;
	name BURLINGTON;
	bustype SWING;
	longitude 249.241975273;
	nominal_voltage 7200.0;
	latitude 1186.14884667;
};

object overhead_line {
	phases ACB;
	from BURLINGTON;
	name 21003;
	longitude 248.438630691;
	to node2101121003;
	length 20.6237;
	latitude 1187.62190279;
	configuration 20531-LINECONFIG;
};

object overhead_line {
	phases ACB;
	from node2101121003;
	name 21011;
	longitude 247.95586711;
	to node6830421011;
	length 13.0755;
	latitude 1188.56931748;
	configuration 20531-LINECONFIG;
};

object overhead_line {
	phases ACB;
	from node6830421011;
	name 68304;
	longitude 246.830576009;
	to node6830568304;
	length 14.8233;
	latitude 1188.09743213;
	configuration 20531-LINECONFIG;
};

object overhead_line {
	phases ACB;
	from node6830421011;
	name 68302;
	longitude 247.347945787;
	to node6830368302;
	length 10;
	latitude 1188.85243282;
	configuration 20531-LINECONFIG;
};

object overhead_line {
	phases ACB;
	from node6830421011;
	name 68300;
	longitude 247.9786675;
	to node6830168300;
	length 10;
	latitude 1189.25127842;
	configuration 20531-LINECONFIG;
};

object overhead_line {
	phases ACB;
	from node6830421011;
	name 68298;
	longitude 249.295834578;
	to node6829968298;
	length 19.0913;
	latitude 1187.75506724;
	configuration 20531-LINECONFIG;
};

object overhead_line {
	phases ACB;
	from node6829968298;
	name 68299;
	longitude 251.005334611;
	to nodeR118268299;
	length 24.3563;
	latitude 1186.71625905;
	configuration 20531-LINECONFIG;
};

object fuse {
	phases ACB;
	from nodeR118268299;
	name R1182;
	current_limit 9999.0 A;
	longitude 251.005334611;
	to node20944R1182;
	latitude 1186.71625905;
};

object overhead_line {
	phases ACB;
	from node20944R1182;
	name 20944;
	to node2083720944;
	longitude 256.779314944;
	length 82.2659;
	latitude 1183.20754522;
	configuration 20531-LINECONFIG;
};

object overhead_line {
	phases ACB;
	from node2083720944;
	name 20837;
	longitude 258.004151788;
	to node2088120837;
	length 87.5465;
	latitude 1176.21796983;
	configuration 20531-LINECONFIG;
};

object overhead_line {
	phases ACB;
	from node2088120837;
	name 20881;
	longitude 259.830364604;
	to node2044520881;
	length 281.156;
	latitude 1153.9880826;
	configuration 20531-LINECONFIG;
};

object overhead_line {
	phases ACB;
	from node2044520881;
	name 20445;
	longitude 262.881404192;
	to node2054920445;
	length 465.786;
	latitude 1116.84969696;
	configuration 20531-LINECONFIG;
};

object overhead_line {
	phases ACB;
	from node2054920445;
	name 20549;
	longitude 250.480527622;
	to node2036920549;
	length 212.612;
	latitude 1104.66049823;
	configuration 20531-LINECONFIG;
};

object overhead_line {
	phases ACB;
	from node2036920549;
	name 20369;
	longitude 227.795214826;
	to node2050620369;
	length 302.735;
	latitude 1094.36911029;
	configuration 20531-LINECONFIG;
};

object overhead_line {
	phases ACB;
	from node2050620369;
	name 20506;
	longitude 214.715738236;
	to node2036720506;
	length 178.526;
	latitude 1087.70338272;
	configuration 20531-LINECONFIG;
};

object overhead_line {
	phases ACB;
	from node2036720506;
	name 20367;
	longitude 217.769418141;
	to nodeT6246302788020367;
	length 144.103;
	latitude 1076.42072273;
	configuration 20531-LINECONFIG;
};

object overhead_line {
	phases ACB;
	from nodeT6246302788020367;
	name 20286;
	longitude 223.420160483;
	to node2024820286;
	length 266.66;
	latitude 1055.54235659;
	configuration 20531-LINECONFIG;
};

object overhead_line {
	phases ACB;
	from node2024820286;
	name 20248;
	longitude 226.897791552;
	to node2014520248;
	length 153.517;
	latitude 1043.58324872;
	configuration 20531-LINECONFIG;
};

object overhead_line {
	phases ACB;
	from node2014520248;
	name 20145;
	longitude 235.106833166;
	to nodeT6246302460920145;
	length 357.003;
	latitude 1015.80689851;
	configuration 20531-LINECONFIG;
};

object overhead_line {
	phases A;
	from nodeT6246302460920145;
	name 20129;
	longitude 233.054465688;
	to nodeF894420129;
	length 27.7071;
	latitude 1014.815933;
	configuration 18949-LINECONFIG;
};

object fuse {
	phases A;
	from nodeF894420129;
	name F8944;
	current_limit 9999.0 A;
	longitude 233.054465688;
	to node20130F8944;
	latitude 1014.815933;
};

object overhead_line {
	phases A;
	from node20130F8944;
	name 20130;
	to nodeT6246302377520130;
	longitude 225.375642686;
	length 103.665;
	latitude 1011.10827356;
	configuration 18949-LINECONFIG;
};

object overhead_line {
	phases ACB;
	from nodeT6246302460920145;
	name 20050;
	longitude 241.406839867;
	to nodeT6246302267620050;
	length 287.2;
	latitude 993.377170686;
	configuration 20531-LINECONFIG;
};

object overhead_line {
	phases ACB;
	from nodeT6246302267620050;
	name 19663;
	longitude 246.189847313;
	to nodeT6246302166319663;
	length 211.226;
	latitude 976.921978131;
	configuration 20531-LINECONFIG;
};

object overhead_line {
	phases ACB;
	from nodeT6246302166319663;
	name 19935;
	longitude 250.792275688;
	to nodeT6246302067019935;
	length 194.654;
	latitude 961.813564972;
	configuration 20531-LINECONFIG;
};

object overhead_line {
	phases ACB;
	from nodeT6246302067019935;
	name 19597;
	longitude 255.792020354;
	to node1985219597;
	length 222.044;
	latitude 944.50776554;
	configuration 20531-LINECONFIG;
};

object overhead_line {
	phases ACB;
	from node1985219597;
	name 19852;
	longitude 276.43593505;
	to nodeT6246301941419852;
	length 273.49;
	latitude 935.53590307;
	configuration 20531-LINECONFIG;
};

object overhead_line {
	phases C;
	from nodeT6246301941419852;
	name 19850;
	longitude 275.524131159;
	to nodeF757319850;
	length 26.5061;
	latitude 937.487875569;
	configuration 16781-LINECONFIG;
};

object fuse {
	phases C;
	from nodeF757319850;
	name F7573;
	current_limit 9999.0 A;
	longitude 275.524131159;
	to node19851F7573;
	latitude 937.487875569;
};

object overhead_line {
	phases C;
	from node19851F7573;
	name 19851;
	longitude 272.741612117;
	to nodeT6246301946719851;
	length 80.8867;
	latitude 943.444541535;
	configuration 16781-LINECONFIG;
};

object overhead_line {
	phases C;
	from nodeT6246301941419852;
	name 19848;
	longitude 278.588226174;
	to nodeF794419848;
	length 28.1181;
	latitude 936.389135487;
	configuration 16781-LINECONFIG;
};

object fuse {
	phases C;
	from nodeF794419848;
	name F7944;
	current_limit 9999.0 A;
	longitude 278.588226174;
	to node19849F7944;
	latitude 936.389135487;
};

object overhead_line {
	phases C;
	from node19849F7944;
	name 19849;
	to node1959219849;
	longitude 297.100498594;
	length 241.85;
	latitude 943.72804257;
	configuration 16781-LINECONFIG;
};

object overhead_line {
	phases C;
	from node1959219849;
	name 19592;
	longitude 299.406890102;
	to node1996419592;
	length 320.096;
	latitude 969.560163313;
	configuration 16781-LINECONFIG;
};

object overhead_line {
	phases C;
	from node1996419592;
	name 19964;
	longitude 301.708126963;
	to nodeT6246302228919964;
	length 319.967;
	latitude 995.382192376;
	configuration 16781-LINECONFIG;
};

object overhead_line {
	phases C;
	from nodeT6246302228919964;
	name 20061;
	longitude 300.939307964;
	to node2013220061;
	length 203.088;
	latitude 1011.81711262;
	configuration 16781-LINECONFIG;
};

object overhead_line {
	phases C;
	from node2013220061;
	name 20132;
	longitude 305.644965407;
	to nodeT6246302425720132;
	length 158.947;
	latitude 1023.83698307;
	configuration 16781-LINECONFIG;
};

object overhead_line {
	phases A;
	from nodeT6246301941419852;
	name 19837;
	longitude 275.789824963;
	to nodeF758219837;
	length 24.9997;
	latitude 933.612479935;
	configuration 18949-LINECONFIG;
};

object fuse {
	phases A;
	from nodeF758219837;
	name F7582;
	current_limit 9999.0 A;
	longitude 275.789824963;
	to node19770F7582;
	latitude 933.612479935;
};

object overhead_line {
	phases A;
	from node19770F7582;
	name 19770;
	longitude 269.047258952;
	to nodeT6246301747919770;
	length 260.872;
	latitude 913.54165931;
	configuration 18949-LINECONFIG;
};

object overhead_line {
	phases A;
	from nodeT6246301747919770;
	name 19750;
	longitude 282.7359216;
	to nodeT6246301745119750;
	length 174.815;
	latitude 909.055700896;
	configuration 18949-LINECONFIG;
};

object overhead_line {
	phases A;
	from nodeT6246301747919770;
	name 19583;
	longitude 256.008727335;
	to nodeT6246301555719583;
	length 467.84;
	latitude 877.86680185;
	configuration 18949-LINECONFIG;
};

object overhead_line {
	phases A;
	from nodeT6246301555719583;
	name 19342;
	longitude 256.581462998;
	to nodeT6246301357619342;
	length 372.94;
	latitude 847.660111688;
	configuration 18949-LINECONFIG;
};

object overhead_line {
	phases A;
	from nodeT6246301357619342;
	name 19399;
	longitude 267.664492261;
	to nodeT6246301254019399;
	length 288.845;
	latitude 826.941758477;
	configuration 18949-LINECONFIG;
};

object overhead_line {
	phases A;
	from nodeT6246301555719583;
	name 19584;
	longitude 237.026252966;
	to node1948319584;
	length 235.1;
	latitude 881.836266017;
	configuration 18949-LINECONFIG;
};

object overhead_line {
	phases A;
	from node1948319584;
	name 19483;
	longitude 227.026793882;
	to nodeT6246301473419483;
	length 316.703;
	latitude 858.13067729;
	configuration 18949-LINECONFIG;
};

object overhead_line {
	phases A;
	from nodeT6246301473419483;
	name 19474;
	longitude 222.248870539;
	to nodeT6246301373719474;
	length 201.012;
	latitude 842.536217883;
	configuration 18949-LINECONFIG;
};

object overhead_line {
	phases A;
	from node1948319584;
	name 18573;
	longitude 206.661472207;
	to nodeT6246301683718573;
	length 383.447;
	latitude 890.615778728;
	configuration 18949-LINECONFIG;
};

object overhead_line {
	phases A;
	from nodeT6246301683718573;
	name 19688;
	longitude 180.243859343;
	to nodeT6247419602319688;
	length 321.462;
	latitude 888.134807413;
	configuration 18949-LINECONFIG;
};

object overhead_line {
	phases A;
	from nodeT6247419602319688;
	name 19558;
	longitude 163.000155169;
	to nodeT6247419610319558;
	length 211.036;
	latitude 885.694390604;
	configuration 18949-LINECONFIG;
};

object overhead_line {
	phases A;
	from nodeT6247419610319558;
	name 19560;
	longitude 146.344711076;
	to nodeT6247419621319560;
	length 202.261;
	latitude 886.858911923;
	configuration 18949-LINECONFIG;
};

object overhead_line {
	phases A;
	from nodeT6247419621319560;
	name 19683;
	longitude 129.503482876;
	to nodeT6247419635319683;
	length 217.697;
	latitude 893.015685507;
	configuration 18949-LINECONFIG;
};

object overhead_line {
	phases A;
	from nodeT6247419621319560;
	name 19682;
	longitude 143.037309467;
	to nodeT6247419721519682;
	length 198.705;
	latitude 902.625503134;
	configuration 18949-LINECONFIG;
};

object overhead_line {
	phases A;
	from nodeT6247419610319558;
	name 19559;
	longitude 159.455473318;
	to nodeT6247419710519559;
	length 202.235;
	latitude 901.704012351;
	configuration 18949-LINECONFIG;
};

object overhead_line {
	phases A;
	from node1948319584;
	name 18572;
	longitude 243.976330226;
	to nodeT6246301663418572;
	length 141.214;
	latitude 891.020829622;
	configuration 18949-LINECONFIG;
};

object overhead_line {
	phases ACB;
	from nodeT6246301941419852;
	name 19815;
	longitude 301.377926962;
	to nodeT6246301824919815;
	length 335.444;
	latitude 923.728669519;
	configuration 20531-LINECONFIG;
};

object overhead_line {
	phases C;
	from nodeT6246301824919815;
	name 19816;
	longitude 302.438590932;
	to nodeF581519816;
	length 26.6007;
	latitude 925.615577721;
	configuration 16781-LINECONFIG;
};

object fuse {
	phases C;
	from nodeF581519816;
	name F5815;
	current_limit 9999.0 A;
	longitude 302.438590932;
	to node19563F5815;
	latitude 925.615577721;
};

object overhead_line {
	phases C;
	from node19563F5815;
	name 19563;
	longitude 312.130685673;
	to nodeT6246301925319563;
	length 243.066;
	latitude 942.857217739;
	configuration 16781-LINECONFIG;
};

object overhead_line {
	phases C;
	from nodeT6246301925319563;
	name 19237;
	longitude 316.805349708;
	to nodeT6246302120019237;
	length 305.297;
	latitude 967.160251593;
	configuration 16781-LINECONFIG;
};

object overhead_line {
	phases ACB;
	from nodeT6246301824919815;
	name 19765;
	longitude 331.242162363;
	to node1974819765;
	length 386.822;
	latitude 912.630275033;
	configuration 20531-LINECONFIG;
};

object overhead_line {
	phases ACB;
	from node1974819765;
	name 19748;
	longitude 341.675070684;
	to nodeT6246301704519748;
	length 137.975;
	latitude 908.144321561;
	configuration 20531-LINECONFIG;
};

object overhead_line {
	phases A;
	from nodeT6246301704519748;
	name 19740;
	longitude 341.219546651;
	to nodeF758519740;
	length 25.0001;
	latitude 906.16900128;
	configuration 18949-LINECONFIG;
};

object fuse {
	phases A;
	from nodeF758519740;
	name F7585;
	current_limit 9999.0 A;
	longitude 341.219546651;
	to node19714F7585;
	latitude 906.16900128;
};

object overhead_line {
	phases A;
	from node19714F7585;
	name 19714;
	to nodeT6246301607719714;
	longitude 339.064267538;
	length 118.283;
	latitude 896.823198499;
	configuration 18949-LINECONFIG;
};

object overhead_line {
	phases A;
	from nodeT6246301607719714;
	name 18588;
	longitude 352.536228241;
	to node1950718588;
	length 218.301;
	latitude 885.076707758;
	configuration 18949-LINECONFIG;
};

object overhead_line {
	phases A;
	from node1950718588;
	name 19507;
	longitude 350.147281685;
	to nodeT6246301405019507;
	length 286.217;
	latitude 862.009059363;
	configuration 18949-LINECONFIG;
};

object overhead_line {
	phases A;
	from nodeT6246301704519748;
	name 19561;
	longitude 314.633145409;
	to nodeT6246301620119561;
	length 428.982;
	latitude 885.704536643;
	configuration 19519-LINECONFIG;
};

object overhead_line {
	phases ACB;
	from nodeT6246301704519748;
	name 19731;
	longitude 354.06868137;
	to node5801719731;
	length 155.789;
	latitude 904.772272871;
	configuration 20531-LINECONFIG;
};

object underground_line {
	phases ACB;
	from node5801719731;
	name 58017;
	longitude 355.299161619;
	to nodeF758658017;
	length 24.9999;
	latitude 906.398212047;
	configuration 57825-LINECONFIG;
};

object fuse {
	phases ACB;
	from nodeF758658017;
	name F7586;
	current_limit 9999.0 A;
	longitude 355.299161619;
	to node58021F7586;
	latitude 906.398212047;
};

object underground_line {
	phases ACB;
	from node58021F7586;
	name 58021;
	longitude 363.572795097;
	to nodeT6246307892258021;
	length 201.626;
	latitude 920.397125919;
	configuration 57825-LINECONFIG;
};

object overhead_line {
	phases ACB;
	from node5801719731;
	name 19589;
	longitude 367.313560285;
	to nodeT6246307689919589;
	length 172.639;
	latitude 899.607888801;
	configuration 20531-LINECONFIG;
};

object overhead_line {
	phases ACB;
	from nodeT6246307689919589;
	name 19538;
	longitude 407.999822235;
	to nodeT6246307566519538;
	length 561.815;
	latitude 877.758068044;
	configuration 20531-LINECONFIG;
};

object overhead_line {
	phases A;
	from nodeT6246307566519538;
	name 19582;
	to nodeF758719582;
	longitude 406.165270263;
	length 22.8798;
	latitude 877.31686814;
	configuration 19519-LINECONFIG;
};

object fuse {
	phases A;
	from nodeF758719582;
	name F7587;
	current_limit 9999.0 A;
	longitude 406.165270263;
	to node19196F7587;
	latitude 877.31686814;
};

object overhead_line {
	phases A;
	from node19196F7587;
	name 19196;
	longitude 402.089870969;
	to node1951919196;
	length 64.7094;
	latitude 873.927662143;
	configuration 19519-LINECONFIG;
};

object line_configuration {
	name 19519-LINECONFIG;
	spacing 16781-LINESPACING;
	conductor_A 16564_conductor_B;
};

object overhead_line {
	phases A;
	from node1951919196;
	name 19519;
	longitude 390.351586262;
	to nodeT6246307477519519;
	length 186.866;
	latitude 864.105197738;
	configuration 19519-LINECONFIG;
};

object overhead_line {
	phases ACB;
	from nodeT6246307566519538;
	name 19186;
	longitude 419.906290654;
	to node1950119186;
	length 169.689;
	latitude 870.515108364;
	configuration 20531-LINECONFIG;
};

object overhead_line {
	phases ACB;
	from node1950119186;
	name 19501;
	to node1934519501;
	longitude 442.201336394;
	length 293.041;
	latitude 861.300220299;
	configuration 20531-LINECONFIG;
};

object overhead_line {
	phases ACB;
	from node1934519501;
	name 19345;
	longitude 474.26876951;
	to node1934419345;
	length 421.542;
	latitude 848.034803531;
	configuration 20531-LINECONFIG;
};

object overhead_line {
	phases C;
	from node1934419345;
	name 19344;
	longitude 475.767669539;
	to nodeF758919344;
	length 25;
	latitude 849.427012707;
	configuration 16781-LINECONFIG;
};

object fuse {
	phases C;
	from nodeF758919344;
	name F7589;
	current_limit 9999.0 A;
	longitude 475.767669539;
	to node19353F7589;
	latitude 849.427012707;
};

object overhead_line {
	phases C;
	from node19353F7589;
	name 19353;
	longitude 489.91300002;
	to nodeT6246307416519353;
	length 235.932;
	latitude 862.56596975;
	configuration 16781-LINECONFIG;
};

object overhead_line {
	phases C;
	from nodeT6246307416519353;
	name 19512;
	longitude 496.357427649;
	to nodeT6246307416119512;
	length 78.2066;
	latitude 862.181171401;
	configuration 16781-LINECONFIG;
};

object overhead_line {
	phases C;
	from nodeT6246307416119512;
	name 19511;
	longitude 503.446821575;
	to node1920219511;
	length 187.008;
	latitude 875.639021935;
	configuration 16781-LINECONFIG;
};

object overhead_line {
	phases C;
	from node1920219511;
	name 19202;
	longitude 513.63204966;
	to node1970519202;
	length 268.521;
	latitude 894.959929797;
	configuration 16781-LINECONFIG;
};

object overhead_line {
	phases C;
	from node1970519202;
	name 19705;
	longitude 519.111660605;
	to node1973319705;
	length 144.519;
	latitude 905.359611492;
	configuration 16781-LINECONFIG;
};

object overhead_line {
	phases C;
	from node1973319705;
	name 19733;
	longitude 517.12516987;
	to node1979319733;
	length 159.822;
	latitude 918.159204907;
	configuration 16781-LINECONFIG;
};

object overhead_line {
	phases C;
	from node1979319733;
	name 19793;
	longitude 503.983449488;
	to node1957319793;
	length 192.016;
	latitude 926.857687673;
	configuration 16781-LINECONFIG;
};

object overhead_line {
	phases C;
	from node1957319793;
	name 19573;
	to nodeT6246307912719573;
	longitude 487.353758498;
	length 242.98;
	latitude 937.864945709;
	configuration 16781-LINECONFIG;
};

object overhead_line {
	phases C;
	from node1979319733;
	name 19792;
	longitude 530.994416623;
	to nodeT6246313995019792;
	length 336;
	latitude 941.731920901;
	configuration 16781-LINECONFIG;
};

object overhead_line {
	phases C;
	from node1920219511;
	name 19198;
	longitude 493.927218689;
	to nodeT6246307513319198;
	length 115.812;
	latitude 874.768127922;
	configuration 16781-LINECONFIG;
};

object overhead_line {
	phases ACB;
	from node1934419345;
	name 19384;
	longitude 512.708475219;
	to nodeT6246307203119384;
	length 546.446;
	latitude 824.865892414;
	configuration 20531-LINECONFIG;
};

object overhead_line {
	phases ACB;
	from nodeT6246307203119384;
	name 70924;
	longitude 522.433175783;
	to node7092570924;
	length 131.068;
	latitude 820.210220024;
	configuration 20531-LINECONFIG;
};

object overhead_line {
	phases ACB;
	from node7092570924;
	name 70925;
	longitude 538.942949319;
	to nodeSW1250-Bx170925;
	length 222.516;
	latitude 812.306219473;
	configuration 20531-LINECONFIG;
};

object switch {
	status CLOSED;
	phases ACB;
	from nodeSW1250-Bx170925;
	name SW1250-Bx1;
	longitude 538.942949319;
	to nodeSW1250-Ax1SW1250-Bx1;
	latitude 812.306219473;
};

object switch {
	status CLOSED;
	phases ACB;
	from nodeSW1250-Ax1SW1250-Bx1;
	name SW1250-Ax1;
	longitude 538.942949319;
	to node19281SW1250-Ax1;
	latitude 812.306219473;
};

object overhead_line {
	phases ACB;
	from node19281SW1250-Ax1;
	name 19281;
	to node1908919281;
	longitude 540.797862923;
	length 25.0002;
	latitude 811.418202744;
	configuration 20531-LINECONFIG;
};

object overhead_line {
	phases ACB;
	from node1908919281;
	name 19089;
	longitude 557.097298477;
	to nodeT6246313079419089;
	length 226.378;
	latitude 802.446305682;
	configuration 20531-LINECONFIG;
};

object overhead_line {
	phases ACB;
	from nodeT6246313079419089;
	name 19165;
	longitude 572.524771614;
	to node1900919165;
	length 222.764;
	latitude 792.623821511;
	configuration 20531-LINECONFIG;
};

object overhead_line {
	phases ACB;
	from node1900919165;
	name 19009;
	longitude 606.872802832;
	to node1875419009;
	length 489.892;
	latitude 771.672583802;
	configuration 20531-LINECONFIG;
};

object overhead_line {
	phases ACB;
	from node1875419009;
	name 18754;
	longitude 647.938780685;
	to node1875318754;
	length 558.193;
	latitude 751.156736272;
	configuration 20531-LINECONFIG;
};

object overhead_line {
	phases ACB;
	from node1875318754;
	name 18753;
	longitude 654.238787378;
	to node1875218753;
	length 76.3128;
	latitude 751.156736272;
	configuration 20531-LINECONFIG;
};

object overhead_line {
	phases ACB;
	from node1875218753;
	name 18752;
	to nodeT6246312914618752;
	longitude 653.588651321;
	length 329.719;
	latitude 777.859716437;
	configuration 20531-LINECONFIG;
};

object overhead_line {
	phases ACB;
	from nodeT6246312914618752;
	name 19041;
	longitude 652.066552847;
	to node1909519041;
	length 311.671;
	latitude 803.064008295;
	configuration 20531-LINECONFIG;
};

object overhead_line {
	phases A;
	from node1909519041;
	name 19095;
	longitude 650.810707479;
	to nodeF824519095;
	length 29.6986;
	latitude 805.130321639;
	configuration 18949-LINECONFIG;
};

object fuse {
	phases A;
	from nodeF824519095;
	name F8245;
	current_limit 9999.0 A;
	longitude 650.810707479;
	to node19103F8245;
	latitude 805.130321639;
};

object overhead_line {
	phases A;
	from node19103F8245;
	name 19103;
	to nodeT6246313125019103;
	longitude 646.607580662;
	length 99.3975;
	latitude 812.046011862;
	configuration 18949-LINECONFIG;
};

object overhead_line {
	phases A;
	from nodeT6246313125019103;
	name 19284;
	longitude 623.646980258;
	to node1929719284;
	length 278.816;
	latitude 813.63583662;
	configuration 18949-LINECONFIG;
};

object overhead_line {
	phases A;
	from node1929719284;
	name 19297;
	longitude 594.489561917;
	to node1932919297;
	length 354.071;
	latitude 815.661076264;
	configuration 18949-LINECONFIG;
};

object overhead_line {
	phases A;
	from node1932919297;
	name 19329;
	longitude 565.760392812;
	to node1934019329;
	length 348.862;
	latitude 817.645860234;
	configuration 18949-LINECONFIG;
};

object overhead_line {
	phases A;
	from node1934019329;
	name 19340;
	longitude 547.510609549;
	to node1938619340;
	length 238.633;
	latitude 824.926650048;
	configuration 18949-LINECONFIG;
};

object overhead_line {
	phases A;
	from node1938619340;
	name 19386;
	longitude 562.61816679;
	to nodeT6246313376119386;
	length 333.034;
	latitude 847.467712514;
	configuration 18949-LINECONFIG;
};

object overhead_line {
	phases A;
	from nodeT6246313376119386;
	name 19341;
	longitude 575.574123216;
	to nodeT6246313468319341;
	length 285.607;
	latitude 866.798801006;
	configuration 18949-LINECONFIG;
};

object overhead_line {
	phases A;
	from nodeT6246313468319341;
	name 19521;
	longitude 584.392058643;
	to nodeT6246313457819521;
	length 108.49;
	latitude 865.259573018;
	configuration 18949-LINECONFIG;
};

object overhead_line {
	phases A;
	from nodeT6246313468319341;
	name 19316;
	to node5796319316;
	longitude 582.869940009;
	length 159.789;
	latitude 877.583266225;
	configuration 18949-LINECONFIG;
};

object underground_line {
	phases A;
	from node5796319316;
	name 57963;
	longitude 568.819816896;
	to nodeT6246313662757963;
	length 215.958;
	latitude 888.352774453;
	configuration 58233-LINECONFIG;
};

object overhead_line {
	phases A;
	from node1938619340;
	name 19387;
	longitude 535.137657783;
	to nodeT6246313381819387;
	length 222.075;
	latitude 838.202158496;
	configuration 18949-LINECONFIG;
};

object overhead_line {
	phases A;
	from node1932919297;
	name 19328;
	longitude 599.16944107;
	to nodeT6246313249919328;
	length 252;
	latitude 835.552427506;
	configuration 18949-LINECONFIG;
};

object overhead_line {
	phases ACB;
	from node1909519041;
	name 19094;
	longitude 669.016139574;
	to nodeT6246313203719094;
	length 351.049;
	latitude 826.131641865;
	configuration 20531-LINECONFIG;
};

object overhead_line {
	phases ACB;
	from nodeT6246313203719094;
	name 19393;
	longitude 672.76985437;
	to nodeSW1248-A19393;
	length 78.1503;
	latitude 831.280747496;
	configuration 20531-LINECONFIG;
};

object overhead_line {
	phases A;
	from node1909519041;
	name 19048;
	longitude 654.054590482;
	to nodeF500719048;
	length 29.7713;
	latitude 801.645944478;
	configuration 18949-LINECONFIG;
};

object fuse {
	phases A;
	from nodeF500719048;
	name F5007;
	current_limit 9999.0 A;
	longitude 654.054590482;
	to node19049F5007;
	latitude 801.645944478;
};

object overhead_line {
	phases A;
	from node19049F5007;
	name 19049;
	to node1894919049;
	longitude 686.548736005;
	length 486.611;
	latitude 778.467312544;
	configuration 18949-LINECONFIG;
};

object line_configuration {
	name 18949-LINECONFIG;
	spacing 16781-LINESPACING;
	conductor_A 16781_conductor_C;
};

object overhead_line {
	phases A;
	from node1894919049;
	name 18949;
	longitude 709.210109656;
	to nodeT6246318883218949;
	length 346.911;
	latitude 761.283008613;
	configuration 18949-LINECONFIG;
};

object overhead_line {
	phases A;
	from nodeT6246318883218949;
	name 18948;
	longitude 728.27515418;
	to nodeT6246318978118948;
	length 375.825;
	latitude 785.302526608;
	configuration 19519-LINECONFIG;
};

object overhead_line {
	phases A;
	from nodeT6246318978118948;
	name 19136;
	to nodeT6246319059819136;
	longitude 749.641440594;
	length 341.47;
	latitude 803.347578512;
	configuration 19519-LINECONFIG;
};

object overhead_line {
	phases A;
	from nodeT6246319059819136;
	name 19096;
	longitude 769.3875642;
	to node1855819096;
	length 343.023;
	latitude 823.265941384;
	configuration 19519-LINECONFIG;
};

object overhead_line {
	phases A;
	from node1855819096;
	name 18558;
	longitude 756.689612427;
	to nodeT6246319350418558;
	length 226.764;
	latitude 836.764262415;
	configuration 18949-LINECONFIG;
};

object overhead_line {
	phases A;
	from nodeT6246318883218949;
	name 18907;
	longitude 699.287919951;
	to nodeT6246318788818907;
	length 157.693;
	latitude 753.012889931;
	configuration 18949-LINECONFIG;
};

object overhead_line {
	phases A;
	from nodeT6246318883218949;
	name 17950;
	longitude 718.771025329;
	to node1835917950;
	length 196.101;
	latitude 748.463147829;
	configuration 19519-LINECONFIG;
};

object overhead_line {
	phases A;
	from node1835917950;
	name 18359;
	longitude 727.119383617;
	to nodeT6246318674218359;
	length 243.492;
	latitude 730.519378414;
	configuration 19519-LINECONFIG;
};

object overhead_line {
	phases A;
	from nodeT6246318674218359;
	name 18330;
	longitude 742.330149774;
	to node1869618330;
	length 198.508;
	latitude 724.534766285;
	configuration 19519-LINECONFIG;
};

object overhead_line {
	phases A;
	from node1869618330;
	name 18696;
	to node1869518696;
	longitude 758.485149275;
	length 293.785;
	latitude 706.783396045;
	configuration 18949-LINECONFIG;
};

object overhead_line {
	phases A;
	from node1869518696;
	name 18695;
	longitude 773.479208452;
	to nodeT6246318545318695;
	length 215.575;
	latitude 716.190737642;
	configuration 18949-LINECONFIG;
};

object overhead_line {
	phases A;
	from nodeT6246318545318695;
	name 18790;
	longitude 788.256595923;
	to nodeT6246318632418790;
	length 216.201;
	latitude 726.013202047;
	configuration 18949-LINECONFIG;
};

object overhead_line {
	phases A;
	from node1869618330;
	name 18329;
	to nodeT6246318657718329;
	longitude 751.891050323;
	length 177.49;
	latitude 735.430635325;
	configuration 19519-LINECONFIG;
};

object overhead_line {
	phases A;
	from nodeT6246318674218359;
	name 18358;
	longitude 728.1100441;
	to node1889318358;
	length 116.619;
	latitude 739.916593739;
	configuration 18949-LINECONFIG;
};

object overhead_line {
	phases A;
	from node1889318358;
	name 18893;
	longitude 742.588169542;
	to node1891018893;
	length 245.206;
	latitude 753.799693353;
	configuration 18949-LINECONFIG;
};

object overhead_line {
	phases A;
	from node1891018893;
	name 18910;
	longitude 763.913158284;
	to node1902718910;
	length 361.047;
	latitude 774.234496113;
	configuration 18949-LINECONFIG;
};

object overhead_line {
	phases A;
	from node1902718910;
	name 19027;
	longitude 776.007456558;
	to nodeT6246318948219027;
	length 204.81;
	latitude 785.829077945;
	configuration 18949-LINECONFIG;
};

object overhead_line {
	phases A;
	from node1894919049;
	name 18991;
	longitude 682.844078576;
	to nodeT6246318897818991;
	length 150.83;
	latitude 766.801827039;
	configuration 18949-LINECONFIG;
};

object overhead_line {
	phases ACB;
	from node1875218753;
	name 18525;
	longitude 654.011745902;
	to node1882318525;
	length 361.26;
	latitude 721.891809204;
	configuration 20531-LINECONFIG;
};

object overhead_line {
	phases A;
	from node1882318525;
	name 18823;
	longitude 655.275995926;
	to nodeF759118823;
	length 25.0002;
	latitude 720.290983021;
	configuration 18949-LINECONFIG;
};

object fuse {
	phases A;
	from nodeF759118823;
	name F7591;
	current_limit 9999.0 A;
	longitude 655.275995926;
	to node18675F7591;
	latitude 720.290983021;
};

object overhead_line {
	phases A;
	from node18675F7591;
	name 18675;
	longitude 659.397172352;
	to nodeT6246312515318675;
	length 81.4961;
	latitude 715.07253608;
	configuration 18949-LINECONFIG;
};

object overhead_line {
	phases A;
	from nodeT6246312515318675;
	name 18674;
	longitude 668.350534527;
	to nodeT6246312408718674;
	length 177.052;
	latitude 703.73538807;
	configuration 18949-LINECONFIG;
};

object overhead_line {
	phases ACB;
	from node1882318525;
	name 18630;
	longitude 654.234101331;
	to node1788618630;
	length 303.262;
	latitude 697.325507094;
	configuration 20531-LINECONFIG;
};
