clock {
	timezone PST+8PDT;
	starttime '2000-01-01 00:00:00';
	stoptime '2000-01-01 00:00:00';
};

#include "schedules.glm";
#set minimum_timestep=60;
#set profiler=1;
#set relax_naming_rules=1;
module generators;
module tape;
module climate;
module residential {
	implicit_enduses NONE;
};

module powerflow {
	solver_method NR;
	NR_iteration_limit 50;
};

object climate {
	name Climate;
	interpolate QUADRATIC;
	tmyfile climate.tmy2;
};

object node {
	phases ABCN;
	name BURLINGTON;
	bustype SWING;
	longitude 4.35777065651;
	nominal_voltage 7200.0;
	latitude 1199.88987305;
};

object overhead_line {
	phases ACB;
	from BURLINGTON;
	name 21003;
	longitude 4.3437249026;
	to node2101121003;
	length 20.6237;
	latitude 1199.90158494;
	configuration 20531-LINECONFIG;
};

object overhead_line {
	phases ACB;
	from node2101121003;
	name 21011;
	longitude 4.33528421775;
	to node6830421011;
	length 13.0755;
	latitude 1199.90911759;
	configuration 20531-LINECONFIG;
};

object overhead_line {
	phases ACB;
	from node6830421011;
	name 68304;
	longitude 4.31560951995;
	to node6830568304;
	length 14.8233;
	latitude 1199.90536575;
	configuration 20531-LINECONFIG;
};

object overhead_line {
	phases ACB;
	from node6830421011;
	name 68302;
	longitude 4.32465526289;
	to node6830368302;
	length 10;
	latitude 1199.91136856;
	configuration 20531-LINECONFIG;
};

object overhead_line {
	phases ACB;
	from node6830421011;
	name 68300;
	longitude 4.33568286195;
	to node6830168300;
	length 10;
	latitude 1199.91453968;
	configuration 20531-LINECONFIG;
};

object overhead_line {
	phases ACB;
	from node6830421011;
	name 68298;
	longitude 4.35871233777;
	to node6829968298;
	length 19.0913;
	latitude 1199.90264369;
	configuration 20531-LINECONFIG;
};

object overhead_line {
	phases ACB;
	from node6829968298;
	name 68299;
	longitude 4.38860140069;
	to nodeR118268299;
	length 24.3563;
	latitude 1199.8943844;
	configuration 20531-LINECONFIG;
};

object fuse {
	phases ACB;
	from nodeR118268299;
	name R1182;
	current_limit 9999.0 A;
	longitude 4.38860140069;
	to node20944R1182;
	latitude 1199.8943844;
};

object overhead_line {
	phases ACB;
	from node20944R1182;
	name 20944;
	to node2083720944;
	longitude 4.48955422791;
	length 82.2659;
	latitude 1199.86648752;
	configuration 20531-LINECONFIG;
};

object overhead_line {
	phases ACB;
	from node2083720944;
	name 20837;
	longitude 4.51096939304;
	to node2088120837;
	length 87.5465;
	latitude 1199.8109152;
	configuration 20531-LINECONFIG;
};

object overhead_line {
	phases ACB;
	from node2088120837;
	name 20881;
	longitude 4.54289907347;
	to node2044520881;
	length 281.156;
	latitude 1199.63417109;
	configuration 20531-LINECONFIG;
};

object overhead_line {
	phases ACB;
	from node2044520881;
	name 20445;
	longitude 4.59624374294;
	to node2054920445;
	length 465.786;
	latitude 1199.33889336;
	configuration 20531-LINECONFIG;
};

object overhead_line {
	phases ACB;
	from node2054920445;
	name 20549;
	longitude 4.37942562484;
	to node2036920549;
	length 212.612;
	latitude 1199.24198018;
	configuration 20531-LINECONFIG;
};

object overhead_line {
	phases ACB;
	from node2036920549;
	name 20369;
	longitude 3.98279343506;
	to node2050620369;
	length 302.735;
	latitude 1199.160156;
	configuration 20531-LINECONFIG;
};

object overhead_line {
	phases ACB;
	from node2050620369;
	name 20506;
	longitude 3.75411060898;
	to node2036720506;
	length 178.526;
	latitude 1199.10715852;
	configuration 20531-LINECONFIG;
};

object overhead_line {
	phases ACB;
	from node2036720506;
	name 20367;
	longitude 3.807501442;
	to nodeT6246302788020367;
	length 144.103;
	latitude 1199.01745299;
	configuration 20531-LINECONFIG;
};

object overhead_line {
	phases ACB;
	from nodeT6246302788020367;
	name 20286;
	longitude 3.90629956434;
	to node2024820286;
	length 266.66;
	latitude 1198.85145448;
	configuration 20531-LINECONFIG;
};

object overhead_line {
	phases ACB;
	from node2024820286;
	name 20248;
	longitude 3.96710280027;
	to node2014520248;
	length 153.517;
	latitude 1198.75637069;
	configuration 20531-LINECONFIG;
};

object overhead_line {
	phases ACB;
	from node2014520248;
	name 20145;
	longitude 4.11063047302;
	to nodeT6246302460920145;
	length 357.003;
	latitude 1198.53552809;
	configuration 20531-LINECONFIG;
};

object overhead_line {
	phases A;
	from nodeT6246302460920145;
	name 20129;
	longitude 4.07474668274;
	to nodeF894420129;
	length 27.7071;
	latitude 1198.52764918;
	configuration 18949-LINECONFIG;
};

object fuse {
	phases A;
	from nodeF894420129;
	name F8944;
	current_limit 9999.0 A;
	longitude 4.07474668274;
	to node20130F8944;
	latitude 1198.52764918;
};

object overhead_line {
	phases A;
	from node20130F8944;
	name 20130;
	to nodeT6246302377520130;
	longitude 3.94048940317;
	length 103.665;
	latitude 1198.49817053;
	configuration 18949-LINECONFIG;
};

object overhead_line {
	phases ACB;
	from nodeT6246302460920145;
	name 20050;
	longitude 4.22078039583;
	to nodeT6246302267620050;
	length 287.2;
	latitude 1198.3571951;
	configuration 20531-LINECONFIG;
};

object overhead_line {
	phases ACB;
	from nodeT6246302267620050;
	name 19663;
	longitude 4.30440695783;
	to nodeT6246302166319663;
	length 211.226;
	latitude 1198.2263641;
	configuration 20531-LINECONFIG;
};

object overhead_line {
	phases ACB;
	from nodeT6246302166319663;
	name 19935;
	longitude 4.384876258;
	to nodeT6246302067019935;
	length 194.654;
	latitude 1198.106241;
	configuration 20531-LINECONFIG;
};

object overhead_line {
	phases ACB;
	from nodeT6246302067019935;
	name 19597;
	longitude 4.47229227439;
	to node1985219597;
	length 222.044;
	latitude 1197.96864704;
	configuration 20531-LINECONFIG;
};

object overhead_line {
	phases ACB;
	from node1985219597;
	name 19852;
	longitude 4.83323246353;
	to nodeT6246301941419852;
	length 273.49;
	latitude 1197.89731408;
	configuration 20531-LINECONFIG;
};

object overhead_line {
	phases C;
	from nodeT6246301941419852;
	name 19850;
	longitude 4.81729039664;
	to nodeF757319850;
	length 26.5061;
	latitude 1197.91283371;
	configuration 16781-LINECONFIG;
};

object fuse {
	phases C;
	from nodeF757319850;
	name F7573;
	current_limit 9999.0 A;
	longitude 4.81729039664;
	to node19851F7573;
	latitude 1197.91283371;
};

object overhead_line {
	phases C;
	from node19851F7573;
	name 19851;
	longitude 4.76864056622;
	to nodeT6246301946719851;
	length 80.8867;
	latitude 1197.96019362;
	configuration 16781-LINECONFIG;
};

object overhead_line {
	phases C;
	from nodeT6246301941419852;
	name 19848;
	longitude 4.87086332846;
	to nodeF794419848;
	length 28.1181;
	latitude 1197.90409791;
	configuration 16781-LINECONFIG;
};

object fuse {
	phases C;
	from nodeF794419848;
	name F7944;
	current_limit 9999.0 A;
	longitude 4.87086332846;
	to node19849F7944;
	latitude 1197.90409791;
};

object overhead_line {
	phases C;
	from node19849F7944;
	name 19849;
	to node1959219849;
	longitude 5.19453367913;
	length 241.85;
	latitude 1197.96244767;
	configuration 16781-LINECONFIG;
};

object overhead_line {
	phases C;
	from node1959219849;
	name 19592;
	longitude 5.23485884996;
	to node1996419592;
	length 320.096;
	latitude 1198.16783221;
	configuration 16781-LINECONFIG;
};

object overhead_line {
	phases C;
	from node1996419592;
	name 19964;
	longitude 5.27509389648;
	to nodeT6246302228919964;
	length 319.967;
	latitude 1198.37313651;
	configuration 16781-LINECONFIG;
};

object overhead_line {
	phases C;
	from nodeT6246302228919964;
	name 20061;
	longitude 5.26165179118;
	to node2013220061;
	length 203.088;
	latitude 1198.50380633;
	configuration 16781-LINECONFIG;
};

object overhead_line {
	phases C;
	from node2013220061;
	name 20132;
	longitude 5.34392595829;
	to nodeT6246302425720132;
	length 158.947;
	latitude 1198.59937322;
	configuration 16781-LINECONFIG;
};

object overhead_line {
	phases A;
	from nodeT6246301941419852;
	name 19837;
	longitude 4.82193581265;
	to nodeF758219837;
	length 24.9997;
	latitude 1197.88202143;
	configuration 18949-LINECONFIG;
};

object fuse {
	phases A;
	from nodeF758219837;
	name F7582;
	current_limit 9999.0 A;
	longitude 4.82193581265;
	to node19770F7582;
	latitude 1197.88202143;
};

object overhead_line {
	phases A;
	from node19770F7582;
	name 19770;
	longitude 4.70404814033;
	to nodeT6246301747919770;
	length 260.872;
	latitude 1197.72244351;
	configuration 18949-LINECONFIG;
};

object overhead_line {
	phases A;
	from nodeT6246301747919770;
	name 19750;
	longitude 4.94338203401;
	to nodeT6246301745119750;
	length 174.815;
	latitude 1197.68677681;
	configuration 18949-LINECONFIG;
};

object overhead_line {
	phases A;
	from nodeT6246301747919770;
	name 19583;
	longitude 4.47608120007;
	to nodeT6246301555719583;
	length 467.84;
	latitude 1197.4388019;
	configuration 18949-LINECONFIG;
};

object overhead_line {
	phases A;
	from nodeT6246301555719583;
	name 19342;
	longitude 4.48609496547;
	to nodeT6246301357619342;
	length 372.94;
	latitude 1197.19863629;
	configuration 18949-LINECONFIG;
};

object overhead_line {
	phases A;
	from nodeT6246301357619342;
	name 19399;
	longitude 4.67987171456;
	to nodeT6246301254019399;
	length 288.845;
	latitude 1197.03391;
	configuration 18949-LINECONFIG;
};

object overhead_line {
	phases A;
	from nodeT6246301555719583;
	name 19584;
	longitude 4.14418979334;
	to node1948319584;
	length 235.1;
	latitude 1197.47036209;
	configuration 18949-LINECONFIG;
};

object overhead_line {
	phases A;
	from node1948319584;
	name 19483;
	longitude 3.96935828941;
	to nodeT6246301473419483;
	length 316.703;
	latitude 1197.28188506;
	configuration 18949-LINECONFIG;
};

object overhead_line {
	phases A;
	from nodeT6246301473419483;
	name 19474;
	longitude 3.88582061835;
	to nodeT6246301373719474;
	length 201.012;
	latitude 1197.15789753;
	configuration 18949-LINECONFIG;
};

object overhead_line {
	phases A;
	from node1948319584;
	name 18573;
	longitude 3.61328904743;
	to nodeT6246301683718573;
	length 383.447;
	latitude 1197.54016574;
	configuration 18949-LINECONFIG;
};

object overhead_line {
	phases A;
	from nodeT6246301683718573;
	name 19688;
	longitude 3.15140096446;
	to nodeT6247419602319688;
	length 321.462;
	latitude 1197.52044017;
	configuration 18949-LINECONFIG;
};

object overhead_line {
	phases A;
	from nodeT6247419602319688;
	name 19558;
	longitude 2.84991038297;
	to nodeT6247419610319558;
	length 211.036;
	latitude 1197.50103705;
	configuration 18949-LINECONFIG;
};

object overhead_line {
	phases A;
	from nodeT6247419610319558;
	name 19560;
	longitude 2.55870499728;
	to nodeT6247419621319560;
	length 202.261;
	latitude 1197.51029586;
	configuration 18949-LINECONFIG;
};

object overhead_line {
	phases A;
	from nodeT6247419621319560;
	name 19683;
	longitude 2.26425134439;
	to nodeT6247419635319683;
	length 217.697;
	latitude 1197.55924678;
	configuration 18949-LINECONFIG;
};

object overhead_line {
	phases A;
	from nodeT6247419621319560;
	name 19682;
	longitude 2.50087806958;
	to nodeT6247419721519682;
	length 198.705;
	latitude 1197.63565196;
	configuration 18949-LINECONFIG;
};

object overhead_line {
	phases A;
	from nodeT6247419610319558;
	name 19559;
	longitude 2.78793482472;
	to nodeT6247419710519559;
	length 202.235;
	latitude 1197.62832543;
	configuration 18949-LINECONFIG;
};

object overhead_line {
	phases A;
	from node1948319584;
	name 18572;
	longitude 4.26570561228;
	to nodeT6246301663418572;
	length 141.214;
	latitude 1197.54338619;
	configuration 18949-LINECONFIG;
};

object overhead_line {
	phases ACB;
	from nodeT6246301941419852;
	name 19815;
	longitude 5.26932064792;
	to nodeT6246301824919815;
	length 335.444;
	latitude 1197.8034378;
	configuration 20531-LINECONFIG;
};

object overhead_line {
	phases C;
	from nodeT6246301824919815;
	name 19816;
	longitude 5.28786539874;
	to nodeF581519816;
	length 26.6007;
	latitude 1197.81844012;
	configuration 16781-LINECONFIG;
};

object fuse {
	phases C;
	from nodeF581519816;
	name F5815;
	current_limit 9999.0 A;
	longitude 5.28786539874;
	to node19563F5815;
	latitude 1197.81844012;
};

object overhead_line {
	phases C;
	from node19563F5815;
	name 19563;
	longitude 5.45732291492;
	to nodeT6246301925319563;
	length 243.066;
	latitude 1197.95552396;
	configuration 16781-LINECONFIG;
};

object overhead_line {
	phases C;
	from nodeT6246301925319563;
	name 19237;
	longitude 5.53905519032;
	to nodeT6246302120019237;
	length 305.297;
	latitude 1198.14875113;
	configuration 16781-LINECONFIG;
};

object overhead_line {
	phases ACB;
	from nodeT6246301824919815;
	name 19765;
	longitude 5.79146981066;
	to node1974819765;
	length 386.822;
	latitude 1197.71519733;
	configuration 20531-LINECONFIG;
};

object overhead_line {
	phases ACB;
	from node1974819765;
	name 19748;
	longitude 5.97387978271;
	to nodeT6246301704519748;
	length 137.975;
	latitude 1197.67953067;
	configuration 20531-LINECONFIG;
};

object overhead_line {
	phases A;
	from nodeT6246301704519748;
	name 19740;
	longitude 5.96591535672;
	to nodeF758519740;
	length 25.0001;
	latitude 1197.6638254;
	configuration 18949-LINECONFIG;
};

object fuse {
	phases A;
	from nodeF758519740;
	name F7585;
	current_limit 9999.0 A;
	longitude 5.96591535672;
	to node19714F7585;
	latitude 1197.6638254;
};

object overhead_line {
	phases A;
	from node19714F7585;
	name 19714;
	to nodeT6246301607719714;
	longitude 5.92823224951;
	length 118.283;
	latitude 1197.58951933;
	configuration 18949-LINECONFIG;
};

object overhead_line {
	phases A;
	from nodeT6246301607719714;
	name 18588;
	longitude 6.16377730556;
	to node1950718588;
	length 218.301;
	latitude 1197.49612601;
	configuration 18949-LINECONFIG;
};

object overhead_line {
	phases A;
	from node1950718588;
	name 19507;
	longitude 6.12200873432;
	to nodeT6246301405019507;
	length 286.217;
	latitude 1197.31272108;
	configuration 18949-LINECONFIG;
};

object overhead_line {
	phases A;
	from nodeT6246301704519748;
	name 19561;
	longitude 5.50107616152;
	to nodeT6246301620119561;
	length 428.982;
	latitude 1197.50111771;
	configuration 19519-LINECONFIG;
};

object overhead_line {
	phases ACB;
	from nodeT6246301704519748;
	name 19731;
	longitude 6.1905708634;
	to node5801719731;
	length 155.789;
	latitude 1197.65272037;
	configuration 20531-LINECONFIG;
};

object underground_line {
	phases ACB;
	from node5801719731;
	name 58017;
	longitude 6.21208469836;
	to nodeF758658017;
	length 24.9999;
	latitude 1197.6656478;
	configuration 57825-LINECONFIG;
};

object fuse {
	phases ACB;
	from nodeF758658017;
	name F7586;
	current_limit 9999.0 A;
	longitude 6.21208469836;
	to node58021F7586;
	latitude 1197.6656478;
};

object underground_line {
	phases ACB;
	from node58021F7586;
	name 58021;
	longitude 6.35674170148;
	to nodeT6246307892258021;
	length 201.626;
	latitude 1197.77694956;
	configuration 57825-LINECONFIG;
};

object overhead_line {
	phases ACB;
	from node5801719731;
	name 19589;
	longitude 6.42214559964;
	to nodeT6246307689919589;
	length 172.639;
	latitude 1197.61165969;
	configuration 20531-LINECONFIG;
};

object overhead_line {
	phases ACB;
	from nodeT6246307689919589;
	name 19538;
	longitude 7.13350811495;
	to nodeT6246307566519538;
	length 561.815;
	latitude 1197.43793739;
	configuration 20531-LINECONFIG;
};

object overhead_line {
	phases A;
	from nodeT6246307566519538;
	name 19582;
	to nodeF758719582;
	longitude 7.1014326319;
	length 22.8798;
	latitude 1197.43442952;
	configuration 19519-LINECONFIG;
};

object fuse {
	phases A;
	from nodeF758719582;
	name F7587;
	current_limit 9999.0 A;
	longitude 7.1014326319;
	to node19196F7587;
	latitude 1197.43442952;
};

object overhead_line {
	phases A;
	from node19196F7587;
	name 19196;
	longitude 7.03017795886;
	to node1951919196;
	length 64.7094;
	latitude 1197.40748282;
	configuration 19519-LINECONFIG;
};

object line_configuration {
	name 19519-LINECONFIG;
	spacing 16781-LINESPACING;
	conductor_A 16564_conductor_B;
};

object overhead_line {
	phases A;
	from node1951919196;
	name 19519;
	longitude 6.82494466059;
	to nodeT6246307477519519;
	length 186.866;
	latitude 1197.32938693;
	configuration 19519-LINECONFIG;
};

object overhead_line {
	phases ACB;
	from nodeT6246307566519538;
	name 19186;
	longitude 7.34168195341;
	to node1950119186;
	length 169.689;
	latitude 1197.38035048;
	configuration 20531-LINECONFIG;
};

object overhead_line {
	phases ACB;
	from node1950119186;
	name 19501;
	to node1934519501;
	longitude 7.73149067645;
	length 293.041;
	latitude 1197.30708528;
	configuration 20531-LINECONFIG;
};

object overhead_line {
	phases ACB;
	from node1934519501;
	name 19345;
	longitude 8.29216075985;
	to node1934419345;
	length 421.542;
	latitude 1197.20161537;
	configuration 20531-LINECONFIG;
};

object overhead_line {
	phases C;
	from node1934419345;
	name 19344;
	longitude 8.31836767205;
	to nodeF758919344;
	length 25;
	latitude 1197.21268446;
	configuration 16781-LINECONFIG;
};

object fuse {
	phases C;
	from nodeF758919344;
	name F7589;
	current_limit 9999.0 A;
	longitude 8.31836767205;
	to node19353F7589;
	latitude 1197.21268446;
};

object overhead_line {
	phases C;
	from node19353F7589;
	name 19353;
	longitude 8.56568599004;
	to nodeT6246307416519353;
	length 235.932;
	latitude 1197.31714893;
	configuration 16781-LINECONFIG;
};

object overhead_line {
	phases C;
	from nodeT6246307416519353;
	name 19512;
	longitude 8.67836098225;
	to nodeT6246307416119512;
	length 78.2066;
	latitude 1197.3140895;
	configuration 16781-LINECONFIG;
};

object overhead_line {
	phases C;
	from nodeT6246307416119512;
	name 19511;
	longitude 8.80231262718;
	to node1920219511;
	length 187.008;
	latitude 1197.4210894;
	configuration 16781-LINECONFIG;
};

object overhead_line {
	phases C;
	from node1920219511;
	name 19202;
	longitude 8.98039213417;
	to node1970519202;
	length 268.521;
	latitude 1197.57470496;
	configuration 16781-LINECONFIG;
};

object overhead_line {
	phases C;
	from node1970519202;
	name 19705;
	longitude 9.07619817871;
	to node1973319705;
	length 144.519;
	latitude 1197.65739015;
	configuration 16781-LINECONFIG;
};

object overhead_line {
	phases C;
	from node1973319705;
	name 19733;
	longitude 9.04146618373;
	to node1979319733;
	length 159.822;
	latitude 1197.75915642;
	configuration 16781-LINECONFIG;
};

object overhead_line {
	phases C;
	from node1979319733;
	name 19793;
	longitude 8.8116950812;
	to node1957319793;
	length 192.016;
	latitude 1197.82831582;
	configuration 16781-LINECONFIG;
};

object overhead_line {
	phases C;
	from node1957319793;
	name 19573;
	to nodeT6246307912719573;
	longitude 8.52093996523;
	length 242.98;
	latitude 1197.91583169;
	configuration 16781-LINECONFIG;
};

object overhead_line {
	phases C;
	from node1979319733;
	name 19792;
	longitude 9.28395742729;
	to nodeT6246313995019792;
	length 336;
	latitude 1197.94657702;
	configuration 16781-LINECONFIG;
};

object overhead_line {
	phases C;
	from node1920219511;
	name 19198;
	longitude 8.63587097516;
	to nodeT6246307513319198;
	length 115.812;
	latitude 1197.41416515;
	configuration 16781-LINECONFIG;
};

object overhead_line {
	phases ACB;
	from node1934419345;
	name 19384;
	longitude 8.96424426986;
	to nodeT6246307203119384;
	length 546.446;
	latitude 1197.01740532;
	configuration 20531-LINECONFIG;
};

object overhead_line {
	phases ACB;
	from nodeT6246307203119384;
	name 70924;
	longitude 9.1342718694;
	to node7092570924;
	length 131.068;
	latitude 1196.98038927;
	configuration 20531-LINECONFIG;
};

object overhead_line {
	phases ACB;
	from node7092570924;
	name 70925;
	longitude 9.42293033708;
	to nodeSW1250-Bx170925;
	length 222.516;
	latitude 1196.9175466;
	configuration 20531-LINECONFIG;
};

object switch {
	status CLOSED;
	phases ACB;
	from nodeSW1250-Bx170925;
	name SW1250-Bx1;
	longitude 9.42293033708;
	to nodeSW1250-Ax1SW1250-Bx1;
	latitude 1196.9175466;
};

object switch {
	status CLOSED;
	phases ACB;
	from nodeSW1250-Ax1SW1250-Bx1;
	name SW1250-Ax1;
	longitude 9.42293033708;
	to node19281SW1250-Ax1;
	latitude 1196.9175466;
};

object overhead_line {
	phases ACB;
	from node19281SW1250-Ax1;
	name 19281;
	to node1908919281;
	longitude 9.45536182485;
	length 25.0002;
	latitude 1196.91048621;
	configuration 20531-LINECONFIG;
};

object overhead_line {
	phases ACB;
	from node1908919281;
	name 19089;
	longitude 9.74034272301;
	to nodeT6246313079419089;
	length 226.378;
	latitude 1196.83915296;
	configuration 20531-LINECONFIG;
};

object overhead_line {
	phases ACB;
	from nodeT6246313079419089;
	name 19165;
	longitude 10.0100781465;
	to node1900919165;
	length 222.764;
	latitude 1196.76105692;
	configuration 20531-LINECONFIG;
};

object overhead_line {
	phases ACB;
	from node1900919165;
	name 19009;
	longitude 10.6106224263;
	to node1875419009;
	length 489.892;
	latitude 1196.59447903;
	configuration 20531-LINECONFIG;
};

object overhead_line {
	phases ACB;
	from node1875419009;
	name 18754;
	longitude 11.328623931;
	to node1875318754;
	length 558.193;
	latitude 1196.43136281;
	configuration 20531-LINECONFIG;
};

object overhead_line {
	phases ACB;
	from node1875318754;
	name 18753;
	longitude 11.4387738536;
	to node1875218753;
	length 76.3128;
	latitude 1196.43136281;
	configuration 20531-LINECONFIG;
};

object overhead_line {
	phases ACB;
	from node1875218753;
	name 18752;
	to nodeT6246312914618752;
	longitude 11.4274068123;
	length 329.719;
	latitude 1196.64367132;
	configuration 20531-LINECONFIG;
};

object overhead_line {
	phases ACB;
	from nodeT6246312914618752;
	name 19041;
	longitude 11.4007942963;
	to node1909519041;
	length 311.671;
	latitude 1196.84406416;
	configuration 20531-LINECONFIG;
};

object overhead_line {
	phases A;
	from node1909519041;
	name 19095;
	longitude 11.3788369751;
	to nodeF824519095;
	length 29.6986;
	latitude 1196.86049288;
	configuration 18949-LINECONFIG;
};

object fuse {
	phases A;
	from nodeF824519095;
	name F8245;
	current_limit 9999.0 A;
	longitude 11.3788369751;
	to node19103F8245;
	latitude 1196.86049288;
};

object overhead_line {
	phases A;
	from node19103F8245;
	name 19103;
	to nodeT6246313125019103;
	longitude 11.3053491018;
	length 99.3975;
	latitude 1196.91547775;
	configuration 18949-LINECONFIG;
};

object overhead_line {
	phases A;
	from nodeT6246313125019103;
	name 19284;
	longitude 10.903903757;
	to node1929719284;
	length 278.816;
	latitude 1196.92811804;
	configuration 18949-LINECONFIG;
};

object overhead_line {
	phases A;
	from node1929719284;
	name 19297;
	longitude 10.3941126517;
	to node1932919297;
	length 354.071;
	latitude 1196.9442202;
	configuration 18949-LINECONFIG;
};

object overhead_line {
	phases A;
	from node1932919297;
	name 19329;
	longitude 9.89180909719;
	to node1934019329;
	length 348.862;
	latitude 1196.96000071;
	configuration 18949-LINECONFIG;
};

object overhead_line {
	phases A;
	from node1934019329;
	name 19340;
	longitude 9.57272813219;
	to node1938619340;
	length 238.633;
	latitude 1197.01788839;
	configuration 18949-LINECONFIG;
};

object overhead_line {
	phases A;
	from node1938619340;
	name 19386;
	longitude 9.83687011535;
	to nodeT6246313376119386;
	length 333.034;
	latitude 1197.19710657;
	configuration 18949-LINECONFIG;
};

object overhead_line {
	phases A;
	from nodeT6246313376119386;
	name 19341;
	longitude 10.063393303;
	to nodeT6246313468319341;
	length 285.607;
	latitude 1197.35080308;
	configuration 18949-LINECONFIG;
};

object overhead_line {
	phases A;
	from nodeT6246313468319341;
	name 19521;
	longitude 10.2175669337;
	to nodeT6246313457819521;
	length 108.49;
	latitude 1197.33856507;
	configuration 18949-LINECONFIG;
};

object overhead_line {
	phases A;
	from nodeT6246313468319341;
	name 19316;
	to node5796319316;
	longitude 10.1909540652;
	length 159.789;
	latitude 1197.43654759;
	configuration 18949-LINECONFIG;
};

object underground_line {
	phases A;
	from node5796319316;
	name 57963;
	longitude 9.945300362;
	to nodeT6246313662757963;
	length 215.958;
	latitude 1197.52217317;
	configuration 58233-LINECONFIG;
};

object overhead_line {
	phases A;
	from node1938619340;
	name 19387;
	longitude 9.35639825404;
	to nodeT6246313381819387;
	length 222.075;
	latitude 1197.12343854;
	configuration 18949-LINECONFIG;
};

object overhead_line {
	phases A;
	from node1932919297;
	name 19328;
	longitude 10.4759361087;
	to nodeT6246313249919328;
	length 252;
	latitude 1197.10237121;
	configuration 18949-LINECONFIG;
};

object overhead_line {
	phases ACB;
	from node1909519041;
	name 19094;
	longitude 11.6971425001;
	to nodeT6246313203719094;
	length 351.049;
	latitude 1197.02746897;
	configuration 20531-LINECONFIG;
};

object overhead_line {
	phases ACB;
	from nodeT6246313203719094;
	name 19393;
	longitude 11.7627728104;
	to nodeSW1248-A19393;
	length 78.1503;
	latitude 1197.06840818;
	configuration 20531-LINECONFIG;
};

object overhead_line {
	phases A;
	from node1909519041;
	name 19048;
	longitude 11.4355533374;
	to nodeF500719048;
	length 29.7713;
	latitude 1196.8327895;
	configuration 18949-LINECONFIG;
};

object fuse {
	phases A;
	from nodeF500719048;
	name F5007;
	current_limit 9999.0 A;
	longitude 11.4355533374;
	to node19049F5007;
	latitude 1196.8327895;
};

object overhead_line {
	phases A;
	from node19049F5007;
	name 19049;
	to node1894919049;
	longitude 12.0036841015;
	length 486.611;
	latitude 1196.64850216;
	configuration 18949-LINECONFIG;
};

object line_configuration {
	name 18949-LINECONFIG;
	spacing 16781-LINESPACING;
	conductor_A 16781_conductor_C;
};

object overhead_line {
	phases A;
	from node1894919049;
	name 18949;
	longitude 12.399897737;
	to nodeT6246318883218949;
	length 346.911;
	latitude 1196.51187419;
	configuration 18949-LINECONFIG;
};

object overhead_line {
	phases A;
	from nodeT6246318883218949;
	name 18948;
	longitude 12.7332328083;
	to nodeT6246318978118948;
	length 375.825;
	latitude 1196.70284719;
	configuration 19519-LINECONFIG;
};

object overhead_line {
	phases A;
	from nodeT6246318978118948;
	name 19136;
	to nodeT6246319059819136;
	longitude 13.106803014;
	length 341.47;
	latitude 1196.84631875;
	configuration 19519-LINECONFIG;
};

object overhead_line {
	phases A;
	from nodeT6246319059819136;
	name 19096;
	longitude 13.4520461374;
	to node1855819096;
	length 343.023;
	latitude 1197.00468452;
	configuration 19519-LINECONFIG;
};

object overhead_line {
	phases A;
	from node1855819096;
	name 18558;
	longitude 13.2300339279;
	to nodeT6246319350418558;
	length 226.764;
	latitude 1197.1120062;
	configuration 18949-LINECONFIG;
};

object overhead_line {
	phases A;
	from nodeT6246318883218949;
	name 18907;
	longitude 12.2264172183;
	to nodeT6246318788818907;
	length 157.693;
	latitude 1196.44612061;
	configuration 18949-LINECONFIG;
};

object overhead_line {
	phases A;
	from nodeT6246318883218949;
	name 17950;
	longitude 12.5670617058;
	to node1835917950;
	length 196.101;
	latitude 1196.40994678;
	configuration 19519-LINECONFIG;
};

object overhead_line {
	phases A;
	from node1835917950;
	name 18359;
	longitude 12.7130252046;
	to nodeT6246318674218359;
	length 243.492;
	latitude 1196.26728049;
	configuration 19519-LINECONFIG;
};

object overhead_line {
	phases A;
	from nodeT6246318674218359;
	name 18330;
	longitude 12.9789717024;
	to node1869618330;
	length 198.508;
	latitude 1196.21969838;
	configuration 19519-LINECONFIG;
};

object overhead_line {
	phases A;
	from node1869618330;
	name 18696;
	to node1869518696;
	longitude 13.2614272668;
	length 293.785;
	latitude 1196.07856181;
	configuration 18949-LINECONFIG;
};

object overhead_line {
	phases A;
	from node1869518696;
	name 18695;
	longitude 13.5235848388;
	to nodeT6246318545318695;
	length 215.575;
	latitude 1196.15335716;
	configuration 18949-LINECONFIG;
};

object overhead_line {
	phases A;
	from nodeT6246318545318695;
	name 18790;
	longitude 13.781954102;
	to nodeT6246318632418790;
	length 216.201;
	latitude 1196.23145304;
	configuration 18949-LINECONFIG;
};

object overhead_line {
	phases A;
	from node1869618330;
	name 18329;
	to nodeT6246318657718329;
	longitude 13.1461354068;
	length 177.49;
	latitude 1196.30632863;
	configuration 19519-LINECONFIG;
};

object overhead_line {
	phases A;
	from nodeT6246318674218359;
	name 18358;
	longitude 12.7303460078;
	to node1889318358;
	length 116.619;
	latitude 1196.34199533;
	configuration 18949-LINECONFIG;
};

object overhead_line {
	phases A;
	from node1889318358;
	name 18893;
	longitude 12.9834829449;
	to node1891018893;
	length 245.206;
	latitude 1196.45237628;
	configuration 18949-LINECONFIG;
};

object overhead_line {
	phases A;
	from node1891018893;
	name 18910;
	longitude 13.3563310981;
	to node1902718910;
	length 361.047;
	latitude 1196.61484813;
	configuration 18949-LINECONFIG;
};

object overhead_line {
	phases A;
	from node1902718910;
	name 19027;
	longitude 13.5677889718;
	to nodeT6246318948219027;
	length 204.81;
	latitude 1196.70703366;
	configuration 18949-LINECONFIG;
};

object overhead_line {
	phases A;
	from node1894919049;
	name 18991;
	longitude 11.9389115149;
	to nodeT6246318897818991;
	length 150.83;
	latitude 1196.55575289;
	configuration 18949-LINECONFIG;
};

object overhead_line {
	phases ACB;
	from node1875218753;
	name 18525;
	longitude 11.4348042386;
	to node1882318525;
	length 361.26;
	latitude 1196.19868491;
	configuration 20531-LINECONFIG;
};

object overhead_line {
	phases A;
	from node1882318525;
	name 18823;
	longitude 11.4569085076;
	to nodeF759118823;
	length 25.0002;
	latitude 1196.18595715;
	configuration 18949-LINECONFIG;
};

object fuse {
	phases A;
	from nodeF759118823;
	name F7591;
	current_limit 9999.0 A;
	longitude 11.4569085076;
	to node18675F7591;
	latitude 1196.18595715;
};

object overhead_line {
	phases A;
	from node18675F7591;
	name 18675;
	longitude 11.5289635524;
	to nodeT6246312515318675;
	length 81.4961;
	latitude 1196.14446662;
	configuration 18949-LINECONFIG;
};

object overhead_line {
	phases A;
	from nodeT6246312515318675;
	name 18674;
	longitude 11.6855049974;
	to nodeT6246312408718674;
	length 177.052;
	latitude 1196.05432788;
	configuration 18949-LINECONFIG;
};

object overhead_line {
	phases ACB;
	from node1882318525;
	name 18630;
	longitude 11.4386919223;