clock {
	timezone PST+8PDT;
	starttime '2000-01-01 00:00:00';
	stoptime '2000-01-01 00:00:00';
};

#set minimum_timestep=60;
#set profiler=1;
#set relax_naming_rules=1;
module generators;
module tape;
module residential {
	implicit_enduses NONE;
};

module powerflow {
	solver_method NR;
	NR_iteration_limit 50;
};

object node {
	phases ABCN;
	name BROMLEY;
	bustype SWING;
	longitude 109.866527217;
	nominal_voltage 7200.0;
	latitude 1102.95072772;
};

object overhead_line {
	phases ACB;
	from BROMLEY;
	name 8370;
	longitude 110.116783338;
	to node83698370;
	length 25.0635;
	latitude 1102.90202735;
	configuration 5564-LINECONFIG;
};

object overhead_line {
	phases ACB;
	from node83698370;
	name 8369;
	longitude 110.375852802;
	to node682668369;
	length 25.9559;
	latitude 1102.84802083;
	configuration 5564-LINECONFIG;
};

object overhead_line {
	phases ACB;
	from node682668369;
	name 68266;
	longitude 110.457111502;
	to node6826768266;
	length 19.3343;
	latitude 1103.32714186;
	configuration 5564-LINECONFIG;
};

object overhead_line {
	phases ACB;
	from node682668369;
	name 68264;
	longitude 110.597315417;
	to node6826568264;
	length 22.1567;
	latitude 1102.88107937;
	configuration 5564-LINECONFIG;
};

object overhead_line {
	phases ACB;
	from node682668369;
	name 68262;
	longitude 110.553802867;
	to node6826368262;
	length 21.6901;
	latitude 1102.50869651;
	configuration 5564-LINECONFIG;
};

object overhead_line {
	phases ACB;
	from node6826368262;
	name 68263;
	longitude 110.76368136;
	to nodeR139868263;
	length 25.5819;
	latitude 1102.10848464;
	configuration 5564-LINECONFIG;
};

object fuse {
	phases ACB;
	from nodeR139868263;
	name R1398;
	current_limit 9999.0 A;
	longitude 110.76368136;
	to node8586R1398;
	latitude 1102.10848464;
};

object overhead_line {
	phases ACB;
	from node8586R1398;
	name 8586;
	longitude 111.102888381;
	to node85808586;
	length 34.2101;
	latitude 1101.98021519;
	configuration 5564-LINECONFIG;
};

object overhead_line {
	phases ACB;
	from node85808586;
	name 8580;
	longitude 112.144052213;
	to node82588580;
	length 108.402;
	latitude 1102.81419574;
	configuration 8194-LINECONFIG;
};

object overhead_line {
	phases ACB;
	from node82588580;
	name 8258;
	to node85408258;
	longitude 112.015129987;
	length 106.998;
	latitude 1099.9139521;
	configuration 8194-LINECONFIG;
};

object overhead_line {
	phases ACB;
	from node85408258;
	name 8540;
	longitude 111.870297922;
	to node84948540;
	length 131.126;
	latitude 1096.35555118;
	configuration 8194-LINECONFIG;
};

object overhead_line {
	phases ACB;
	from node84948540;
	name 8494;
	longitude 111.725984577;
	to node81958494;
	length 131.563;
	latitude 1092.78497139;
	configuration 8194-LINECONFIG;
};

object overhead_line {
	phases ACB;
	from node81958494;
	name 8195;
	longitude 111.645321579;
	to node81948195;
	length 106.214;
	latitude 1089.89324694;
	configuration 8194-LINECONFIG;
};

object line_configuration {
	name 8194-LINECONFIG;
	spacing 5272-LINESPACING;
	conductor_B 8194_conductor_C;
	conductor_A 8194_conductor_C;
	conductor_C 8194_conductor_C;
};

object overhead_line_conductor {
	diameter 1.156;
	name 8194_conductor_C;
	geometric_mean_radius 0.048;
	resistance 0.203;
};

object overhead_line {
	phases ACB;
	from node81948195;
	name 8194;
	longitude 111.546522956;
	to node81858194;
	length 180.078;
	latitude 1084.98378478;
	configuration 8194-LINECONFIG;
};

object overhead_line {
	phases ACB;
	from node81858194;
	name 8185;
	longitude 114.084482336;
	to node83378185;
	length 255.533;
	latitude 1084.11323773;
	configuration 5564-LINECONFIG;
};

object overhead_line {
	phases ACB;
	from node83378185;
	name 8337;
	longitude 116.903601049;
	to node82308337;
	length 284.126;
	latitude 1083.08594394;
	configuration 5564-LINECONFIG;
};

object overhead_line {
	phases ACB;
	from node82308337;
	name 8230;
	longitude 116.606383413;
	to node73548230;
	length 180.361;
	latitude 1078.2285568;
	configuration 5564-LINECONFIG;
};

object overhead_line {
	phases ACB;
	from node73548230;
	name 7354;
	to node81087354;
	longitude 116.205726784;
	length 245.509;
	latitude 1071.61483534;
	configuration 5564-LINECONFIG;
};

object overhead_line {
	phases ACB;
	from node81087354;
	name 8108;
	longitude 115.700161762;
	to node80688108;
	length 320.366;
	latitude 1062.97692677;
	configuration 5564-LINECONFIG;
};

object overhead_line {
	phases ACB;
	from node80688108;
	name 8068;
	longitude 115.000505889;
	to node79418068;
	length 300.212;
	latitude 1055.0051764;
	configuration 5564-LINECONFIG;
};

object overhead_line {
	phases ACB;
	from node79418068;
	name 7941;
	longitude 114.592275591;
	to node74767941;
	length 285.923;
	latitude 1047.27813269;
	configuration 5564-LINECONFIG;
};

object overhead_line {
	phases ACB;
	from node74767941;
	name 7476;
	longitude 114.057981215;
	to node77527476;
	length 399.581;
	latitude 1036.46571134;
	configuration 5564-LINECONFIG;
};

object overhead_line {
	phases ACB;
	from node77527476;
	name 7752;
	longitude 113.775507673;
	to node77337752;
	length 184.545;
	latitude 1031.4861325;
	configuration 5564-LINECONFIG;
};

object overhead_line {
	phases ACB;
	from node77337752;
	name 7733;
	longitude 113.08542153;
	to node73097733;
	length 512.78;
	latitude 1017.61225453;
	configuration 5564-LINECONFIG;
};

object overhead_line {
	phases ACB;
	from node73097733;
	name 7309;
	longitude 112.314008258;
	to node72137309;
	length 533.965;
	latitude 1003.1854809;
	configuration 5564-LINECONFIG;
};

object overhead_line {
	phases ACB;
	from node72137309;
	name 7213;
	to node75267213;
	longitude 111.778145505;
	length 303.385;
	latitude 995.031792862;
	configuration 5564-LINECONFIG;
};

object overhead_line {
	phases ACB;
	from node75267213;
	name 7526;
	longitude 111.337384354;
	to node65167526;
	length 240.809;
	latitude 988.567572154;
	configuration 5564-LINECONFIG;
};

object overhead_line {
	phases ACB;
	from node65167526;
	name 6516;
	longitude 110.873782446;
	to nodeT121752020386516;
	length 257.081;
	latitude 981.663051748;
	configuration 5564-LINECONFIG;
};

object overhead_line {
	phases ACB;
	from nodeT121752020386516;
	name 7187;
	longitude 110.595374954;
	to node71477187;
	length 183.125;
	latitude 976.72100934;
	configuration 5564-LINECONFIG;
};

object overhead_line {
	phases ACB;
	from node71477187;
	name 7147;
	longitude 111.175032528;
	to nodeT121752000677147;
	length 168.042;
	latitude 972.413793103;
	configuration 5564-LINECONFIG;
};

object overhead_line {
	phases ACB;
	from nodeT121752000677147;
	name 6977;
	longitude 112.314943053;
	to node68466977;
	length 390.474;
	latitude 962.215724866;
	configuration 5564-LINECONFIG;
};

object overhead_line {
	phases ACB;
	from node68466977;
	name 6846;
	longitude 112.106295677;
	to node67136846;
	length 434.375;
	latitude 950.369180373;
	configuration 5564-LINECONFIG;
};

object overhead_line {
	phases ACB;
	from node67136846;
	name 6713;
	longitude 111.942690126;
	to node64756713;
	length 452.545;
	latitude 938.020910363;
	configuration 5564-LINECONFIG;
};

object overhead_line {
	phases ACB;
	from node64756713;
	name 6475;
	longitude 111.571684205;
	to node61476475;
	length 444.672;
	latitude 925.921808266;
	configuration 5564-LINECONFIG;
};

object overhead_line {
	phases ACB;
	from node61476475;
	name 6147;
	longitude 110.190897275;
	to nodeT121751901726147;
	length 319.893;
	latitude 918.041160878;
	configuration 5564-LINECONFIG;
};

object overhead_line {
	phases ACB;
	from nodeT121751901726147;
	name 6348;
	to nodeT121751882426348;
	longitude 108.034318204;
	length 494.97;
	latitude 905.873781963;
	configuration 5564-LINECONFIG;
};

object overhead_line {
	phases ACB;
	from nodeT121751882426348;
	name 6263;
	longitude 107.433405355;
	to node62626263;
	length 133.552;
	latitude 902.616407349;
	configuration 5564-LINECONFIG;
};

object overhead_line {
	phases ACB;
	from node62626263;
	name 6262;
	longitude 106.550299403;
	to node60296262;
	length 196.269;
	latitude 897.829321844;
	configuration 5564-LINECONFIG;
};

object overhead_line {
	phases ACB;
	from node60296262;
	name 6029;
	longitude 105.075348111;
	to node58226029;
	length 313.199;
	latitude 890.283155913;
	configuration 5564-LINECONFIG;
};

object overhead_line {
	phases ACB;
	from node58226029;
	name 5822;
	longitude 105.353446447;
	to node60915822;
	length 105.836;
	latitude 887.494744941;
	configuration 5564-LINECONFIG;
};

object overhead_line {
	phases ACB;
	from node60915822;
	name 6091;
	longitude 106.327259245;
	to node57876091;
	length 368.088;
	latitude 877.801795242;
	configuration 5564-LINECONFIG;
};

object overhead_line {
	phases ACB;
	from node57876091;
	name 5787;
	to node59755787;
	longitude 107.4759324;
	length 458.346;
	latitude 865.685623108;
	configuration 5564-LINECONFIG;
};

object overhead_line {
	phases ACB;
	from node59755787;
	name 5975;
	longitude 108.055589974;
	to node59745975;
	length 212.18;
	latitude 860.1121742;
	configuration 5564-LINECONFIG;
};

object overhead_line {
	phases C;
	from node59745975;
	name 5974;
	longitude 107.822127162;
	to nodeF89275974;
	length 25.0003;
	latitude 860.358030785;
	configuration 6488-LINECONFIG;
};

object fuse {
	phases C;
	from nodeF89275974;
	name F8927;
	current_limit 9999.0 A;
	longitude 107.822127162;
	to node5978F8927;
	latitude 860.358030785;
};

object overhead_line {
	phases C;
	from node5978F8927;
	name 5978;
	longitude 107.452783098;
	to node59795978;
	length 39.5511;
	latitude 860.746988712;
	configuration 6488-LINECONFIG;
};

object overhead_line {
	phases C;
	from node59795978;
	name 5979;
	longitude 103.498424168;
	to nodeT121751804955979;
	length 421.365;
	latitude 864.750452224;
	configuration 6488-LINECONFIG;
};

object overhead_line {
	phases C;
	from nodeT121751804955979;
	name 5781;
	to node53685781;
	longitude 101.438503468;
	length 226.652;
	latitude 867.344338388;
	configuration 6488-LINECONFIG;
};

object overhead_line {
	phases C;
	from node53685781;
	name 5368;
	longitude 99.501521088;
	to nodeT121751816855368;
	length 212.364;
	latitude 869.733450729;
	configuration 6488-LINECONFIG;
};

object overhead_line {
	phases ACB;
	from node59745975;
	name 5926;
	longitude 108.221071224;
	to node58815926;
	length 335.407;
	latitude 850.965319123;
	configuration 5564-LINECONFIG;
};

object overhead_line {
	phases ACB;
	from node58815926;
	name 5881;
	longitude 108.374037833;
	to nodeT121742372015881;
	length 275.923;
	latitude 843.443049245;
	configuration 5564-LINECONFIG;
};

object overhead_line {
	phases ACB;
	from nodeT121742372015881;
	name 5832;
	longitude 108.546087696;
	to node57555832;
	length 298.87;
	latitude 835.296192221;
	configuration 5564-LINECONFIG;
};

object overhead_line {
	phases ACB;
	from node57555832;
	name 5755;
	longitude 108.711256736;
	to node48895755;
	length 369.369;
	latitude 825.220998937;
	configuration 5564-LINECONFIG;
};

object overhead_line {
	phases ACB;
	from node48895755;
	name 4889;
	longitude 109.667239396;
	to nodeT121742321844889;
	length 191.945;
	latitude 820.674860474;
	configuration 5564-LINECONFIG;
};

object overhead_line {
	phases ACB;
	from nodeT121742321844889;
	name 5565;
	longitude 109.729921345;
	to nodeSW1082-Bx15565;
	length 18.1269;
	latitude 820.210391408;
	configuration 5564-LINECONFIG;
};

object switch {
	status CLOSED;
	phases ACB;
	from nodeSW1082-Bx15565;
	name SW1082-Bx1;
	longitude 109.729921345;
	to nodeSW1082-Ax1SW1082-Bx1;
	latitude 820.210391408;
};

object switch {
	status CLOSED;
	phases ACB;
	from nodeSW1082-Ax1SW1082-Bx1;
	name SW1082-Ax1;
	longitude 109.729921345;
	to node5564SW1082-Ax1;
	latitude 820.210391408;
};

object line_configuration {
	name 5564-LINECONFIG;
	spacing 5272-LINESPACING;
	conductor_A 5564_conductor_C;
	conductor_C 5564_conductor_C;
	conductor_B 5564_conductor_C;
};

object overhead_line_conductor {
	diameter 0.721;
	name 5564_conductor_C;
	geometric_mean_radius 0.0221;
	resistance 0.303;
};

object overhead_line {
	phases ACB;
	from node5564SW1082-Ax1;
	name 5564;
	longitude 110.487138571;
	to node55495564;
	length 218.97;
	latitude 814.599711032;
	configuration 5564-LINECONFIG;
};

object overhead_line {
	phases B;
	from node55495564;
	name 5549;
	longitude 110.544697479;
	to node675305549;
	length 82.4509;
	latitude 812.353946698;
	configuration 2918-LINECONFIG;
};

object overhead_line {
	phases B;
	from node675305549;
	name 67530;
	longitude 110.588722638;
	to nodeR100467530;
	length 11.6163;
	latitude 812.060384669;
	configuration 2918-LINECONFIG;
};

object fuse {
	phases B;
	from nodeR100467530;
	name R1004;
	current_limit 9999.0 A;
	longitude 110.588722638;
	to node67531R1004;
	latitude 812.060389665;
};

object overhead_line {
	phases B;
	from node67531R1004;
	name 67531;
	longitude 110.636122834;
	to node554667531;
	length 12.5072;
	latitude 811.744306452;
	configuration 2918-LINECONFIG;
};

object overhead_line {
	phases B;
	from node554667531;
	name 5546;
	longitude 110.721318058;
	to nodeSW1506-Ax15546;
	length 14.5006;
	latitude 812.064862563;
	configuration 2918-LINECONFIG;
};

object overhead_line {
	phases B;
	from node554667531;
	name 4632;
	to node46254632;
	longitude 111.194740809;
	length 147.394;
	latitude 808.019431393;
	configuration 2918-LINECONFIG;
};

object overhead_line {
	phases B;
	from node46254632;
	name 4625;
	longitude 108.556412594;
	to nodeT121742302304625;
	length 266.061;
	latitude 807.026241036;
	configuration 2808-LINECONFIG;
};

object overhead_line {
	phases B;
	from node46254632;
	name 4880;
	longitude 112.866449257;
	to nodeT121580489784880;
	length 397.075;
	latitude 798.183148677;
	configuration 2918-LINECONFIG;
};

object overhead_line {
	phases B;
	from nodeT121580489784880;
	name 5723;
	longitude 112.884277562;
	to node57045723;
	length 175.384;
	latitude 793.394698297;
	configuration 2918-LINECONFIG;
};

object overhead_line {
	phases B;
	from node57045723;
	name 5704;
	to node56825704;
	longitude 112.975937532;
	length 242.298;
	latitude 786.783689926;
	configuration 2918-LINECONFIG;
};

object overhead_line {
	phases B;
	from node56825704;
	name 5682;
	longitude 113.159251362;
	to node53205682;
	length 400.419;
	latitude 775.862063969;
	configuration 2918-LINECONFIG;
};

object overhead_line {
	phases B;
	from node53205682;
	name 5320;
	longitude 113.345687896;
	to node56295320;
	length 418.414;
	latitude 764.448981499;
	configuration 2918-LINECONFIG;
};

object overhead_line {
	phases B;
	from node56295320;
	name 5629;
	longitude 113.547456284;
	to node55955629;
	length 514.021;
	latitude 750.42491951;
	configuration 2918-LINECONFIG;
};

object overhead_line {
	phases B;
	from node55955629;
	name 5595;
	longitude 113.731394533;
	to node55255595;
	length 369.582;
	latitude 740.34630156;
	configuration 2918-LINECONFIG;
};

object overhead_line {
	phases B;
	from node55255595;
	name 5525;
	longitude 113.878109017;
	to node54915525;
	length 389.151;
	latitude 729.728444983;
	configuration 2918-LINECONFIG;
};

object overhead_line {
	phases B;
	from node54915525;
	name 5491;
	longitude 114.098960655;
	to node54545491;
	length 547.945;
	latitude 714.779462793;
	configuration 2918-LINECONFIG;
};

object overhead_line {
	phases B;
	from node54545491;
	name 5454;
	longitude 114.300100958;
	to node54555454;
	length 412.864;
	latitude 703.519949032;
	configuration 2918-LINECONFIG;
};

object overhead_line {
	phases B;
	from node54555454;
	name 5455;
	to node54585455;
	longitude 110.872220788;
	length 343.906;
	latitude 704.386848096;
	configuration 2918-LINECONFIG;
};

object overhead_line {
	phases B;
	from node54585455;
	name 5458;
	longitude 107.307322338;
	to node54605458;
	length 358.492;
	latitude 705.509732761;
	configuration 2918-LINECONFIG;
};

object overhead_line {
	phases B;
	from node54605458;
	name 5460;
	longitude 103.668598331;
	to node54625460;
	length 365.819;
	latitude 706.63261243;
	configuration 2918-LINECONFIG;
};

object overhead_line {
	phases B;
	from node54625460;
	name 5462;
	longitude 100.063348524;
	to node54655462;
	length 362.181;
	latitude 707.676992912;
	configuration 2918-LINECONFIG;
};

object overhead_line {
	phases B;
	from node54655462;
	name 5465;
	longitude 96.1715511819;
	to node54685465;
	length 390.634;
	latitude 708.71455404;
	configuration 2918-LINECONFIG;
};

object overhead_line {
	phases B;
	from node54685465;
	name 5468;
	longitude 90.1544573935;
	to node54855468;
	length 621.703;
	latitude 713.049062683;
	configuration 2918-LINECONFIG;
};

object overhead_line {
	phases B;
	from node54855468;
	name 5485;
	longitude 86.6740154967;
	to node54955485;
	length 363.053;
	latitude 715.902342461;
	configuration 2918-LINECONFIG;
};

object overhead_line {
	phases B;
	from node54955485;
	name 5495;
	longitude 84.7123233785;
	to node55005495;
	length 204.09;
	latitude 717.458669163;
	configuration 2918-LINECONFIG;
};

object overhead_line {
	phases B;
	from node55005495;
	name 5500;
	to node54665500;
	longitude 81.5484597518;
	length 327.002;
	latitude 719.748802603;
	configuration 2918-LINECONFIG;
};

object overhead_line {
	phases B;
	from node54665500;
	name 5466;
	longitude 79.3652873012;
	to node54315466;
	length 474.137;
	latitude 708.253797945;
	configuration 2918-LINECONFIG;
};

object overhead_line {
	phases B;
	from node54315466;
	name 5431;
	longitude 79.2877079036;
	to node53815431;
	length 530.182;
	latitude 693.779223882;
	configuration 2918-LINECONFIG;
};

object overhead_line {
	phases B;
	from node53815431;
	name 5381;
	longitude 79.2038757686;
	to node52545381;
	length 485.572;
	latitude 680.523100377;
	configuration 2918-LINECONFIG;
};

object overhead_line {
	phases B;
	from node52545381;
	name 5254;
	longitude 79.1403690004;
	to node51805254;
	length 579.535;
	latitude 664.700394771;
	configuration 2918-LINECONFIG;
};

object overhead_line {
	phases B;
	from node51805254;
	name 5180;
	longitude 79.0139878262;
	to node51235180;
	length 652.372;
	latitude 646.891318445;
	configuration 2918-LINECONFIG;
};

object overhead_line {
	phases B;
	from node51235180;
	name 5123;
	longitude 78.9167062576;
	to node49825123;
	length 537.963;
	latitude 632.205151203;
	configuration 2918-LINECONFIG;
};

object overhead_line {
	phases B;
	from node49825123;
	name 4982;
	longitude 78.8535135328;
	to node45944982;
	length 465.418;
	latitude 619.498522004;
	configuration 2918-LINECONFIG;
};

object overhead_line {
	phases B;
	from node45944982;
	name 4594;
	to node39774594;
	longitude 78.8256707064;
	length 289.639;
	latitude 611.590575547;
	configuration 2918-LINECONFIG;
};

object overhead_line {
	phases B;
	from node39774594;
	name 3977;
	longitude 78.8166459671;
	to node39473977;
	length 25.0001;
	latitude 610.908417206;
	configuration 2918-LINECONFIG;
};

object overhead_line {
	phases B;
	from node39473977;
	name 3947;
	longitude 78.7587284151;
	to node50733947;
	length 160.371;
	latitude 606.532497526;
	configuration 2918-LINECONFIG;
};

object overhead_line {
	phases B;
	from node50733947;
	name 5073;
	longitude 78.6902201912;
	to node50585073;
	length 577.916;
	latitude 590.754161026;
	configuration 2918-LINECONFIG;
};

object overhead_line {
	phases B;
	from node50585073;
	name 5058;
	longitude 78.5963723128;
	to node50525058;
	length 185.862;
	latitude 585.68584398;
	configuration 2918-LINECONFIG;
};

object overhead_line {
	phases B;
	from node50525058;
	name 5052;
	longitude 80.8561869228;
	to nodeT121741295785052;
	length 226.176;
	latitude 585.30700008;
	configuration 2808-LINECONFIG;
};

object overhead_line {
	phases B;
	from nodeT121741295785052;
	name 5029;
	to nodeF59935029;
	longitude 80.9447639038;
	length 19.4364;
	latitude 584.834493435;
	configuration 2808-LINECONFIG;
};

object fuse {
	phases B;
	from nodeF59935029;
	name F5993;
	current_limit 9999.0 A;
	longitude 80.9447639038;
	to node5028F5993;
	latitude 584.834493435;
};

object overhead_line {
	phases B;
	from node5028F5993;
	name 5028;
	longitude 82.3833761265;
	to node48365028;
	length 315.68;
	latitude 577.160149717;
	configuration 2808-LINECONFIG;
};

object overhead_line {
	phases B;
	from node48365028;
	name 4836;
	longitude 83.1072425686;
	to node48234836;
	length 352.252;
	latitude 567.747073346;
	configuration 2808-LINECONFIG;
};

object overhead_line {
	phases B;
	from node48234836;
	name 4823;
	longitude 84.2818828495;
	to node47044823;
	length 325.745;
	latitude 559.450050626;
	configuration 2808-LINECONFIG;
};

object overhead_line {
	phases B;
	from node47044823;
	name 4704;
	longitude 84.0025368984;
	to node45524704;
	length 204.042;
	latitude 553.93121651;
	configuration 2808-LINECONFIG;
};

object overhead_line {
	phases B;
	from node45524704;
	name 4552;
	longitude 84.3059693905;
	to nodeT121741224514552;
	length 304.761;
	latitude 545.651258831;
	configuration 2808-LINECONFIG;
};

object overhead_line {
	phases B;
	from nodeT121741224514552;
	name 4645;
	longitude 85.1799901171;
	to node48024645;
	length 285.432;
	latitude 538.2313742;
	configuration 2808-LINECONFIG;
};

object overhead_line {
	phases B;
	from node48024645;
	name 4802;
	longitude 86.5122899217;
	to nodeT121741203304802;
	length 203.354;
	latitude 534.033374223;
	configuration 2808-LINECONFIG;
};

object overhead_line {
	phases B;
	from node48365028;
	name 5016;
	longitude 82.8836317589;
	to nodeT121741274785016;
	length 114;
	latitude 574.362509644;
	configuration 2808-LINECONFIG;
};

object overhead_line {
	phases B;
	from node50525058;
	name 5025;
	to node44105025;
	longitude 77.62725426;
	length 337.077;
	latitude 576.870044028;
	configuration 2918-LINECONFIG;
};

object overhead_line {
	phases B;
	from node44105025;
	name 4410;
	longitude 76.039071237;
	to node47004410;
	length 517.9;
	latitude 563.409140036;
	configuration 2918-LINECONFIG;
};

object overhead_line {
	phases B;
	from node47004410;
	name 4700;
	longitude 74.8406547916;
	to node47854700;
	length 386.627;
	latitude 553.37148318;
	configuration 2918-LINECONFIG;
};

object overhead_line {
	phases B;
	from node47854700;
	name 4785;
	longitude 72.2586378687;
	to node39674785;
	length 843.291;
	latitude 531.449743738;
	configuration 2918-LINECONFIG;
};

object overhead_line {
	phases B;
	from node39674785;
	name 3967;
	longitude 69.741688149;
	to node40123967;
	length 806.924;
	latitude 510.514346985;
	configuration 2918-LINECONFIG;
};

object overhead_line {
	phases B;
	from node40123967;
	name 4012;
	longitude 67.63109425;
	to node45044012;
	length 696.314;
	latitude 492.394680258;
	configuration 2918-LINECONFIG;
};

object overhead_line {
	phases B;
	from node45044012;
	name 4504;
	longitude 66.6804307533;
	to node44814504;
	length 290.228;
	latitude 484.906547123;
	configuration 2918-LINECONFIG;
};

object overhead_line {
	phases B;
	from node44814504;
	name 4481;
	longitude 65.5617883337;
	to node44824481;
	length 361.934;
	latitude 475.507111125;
	configuration 2918-LINECONFIG;
};

object overhead_line {
	phases B;
	from node44824481;
	name 4482;
	to node44864482;
	longitude 70.5084127847;
	length 506.089;
	latitude 478.490085211;
	configuration 2808-LINECONFIG;
};

object overhead_line {
	phases B;
	from node44864482;
	name 4486;
	longitude 74.8709977347;
	to node44914486;
	length 447.306;
	latitude 481.240969749;
	configuration 2808-LINECONFIG;
};

object overhead_line {
	phases B;
	from node44914486;
	name 4491;
	longitude 76.4673195814;
	to node44944491;
	length 162.822;
	latitude 482.138602542;
	configuration 2808-LINECONFIG;
};

object overhead_line {
	phases B;
	from node44944491;
	name 4494;
	longitude 77.449893177;
	to node45074494;
	length 171.391;
	latitude 485.974807003;
	configuration 2808-LINECONFIG;
};

object overhead_line {
	phases B;
	from node45074494;
	name 4507;
	longitude 78.892931926;
	to node45064507;
	length 150.942;
	latitude 487.196668904;
	configuration 2808-LINECONFIG;
};

object overhead_line {
	phases B;
	from node45064507;
	name 4506;
	longitude 79.3027269366;
	to node45054506;
	length 70.6861;
	latitude 485.623272165;
	configuration 2808-LINECONFIG;
};

object overhead_line {
	phases B;
	from node45054506;
	name 4505;
	longitude 81.1511787695;
	to node45194505;
	length 225.899;
	latitude 489.176208612;
	configuration 2808-LINECONFIG;
};

object overhead_line {
	phases B;
	from node45194505;
	name 4519;
	longitude 84.1361080481;
	to node45204519;
	length 298.188;
	latitude 489.186459295;
	configuration 2808-LINECONFIG;
};

object overhead_line {
	phases B;
	from node45204519;
	name 4520;
	to node45174520;
	longitude 85.7577677154;
	length 214.276;
	latitude 493.015854397;
	configuration 2808-LINECONFIG;
};

object overhead_line {
	phases B;
	from node45174520;
	name 4517;
	longitude 86.5858051009;
	to node45164517;
	length 186.14;
	latitude 488.462894913;
	configuration 2808-LINECONFIG;
};

object overhead_line {
	phases B;
	from node45164517;
	name 4516;
	longitude 88.4793005932;
	to node45184516;
	length 190.01;
	latitude 488.954374744;
	configuration 2808-LINECONFIG;
};

object overhead_line {
	phases B;
	from node45184516;
	name 4518;
	longitude 90.4322416884;
	to nodeT121731721204518;
	length 195.969;
	latitude 489.459499944;
	configuration 2808-LINECONFIG;
};

object overhead_line {
	phases B;
	from node44824481;
	name 4451;
	longitude 64.4606589556;
	to node39464451;
	length 344.769;
	latitude 466.58551958;
	configuration 2918-LINECONFIG;
};

object overhead_line {
	phases B;
	from node39464451;
	name 3946;
	longitude 63.1743424911;
	to node42533946;
	length 428.354;
	latitude 455.428389401;
	configuration 2918-LINECONFIG;
};

object overhead_line {
	phases B;
	from node42533946;
	name 4253;
	to nodeT121731035944253;
	longitude 61.7200422157;
	length 441.465;
	latitude 444.046014012;
	configuration 2918-LINECONFIG;
};

object overhead_line {
	phases B;
	from nodeT121731035944253;
	name 4224;
	longitude 58.8255142963;
	to nodeT121731026584224;
	length 391.629;
	latitude 436.83432121;
	configuration 2918-LINECONFIG;
};

object overhead_line {
	phases B;
	from nodeT121731026584224;
	name 3609;
	longitude 58.9478709657;
	to nodeF89333609;
	length 19.0559;
	latitude 436.435157569;
	configuration 2808-LINECONFIG;
};

object fuse {
	phases B;
	from nodeF89333609;
	name F8933;
	current_limit 9999.0 A;
	longitude 58.9478709657;
	to node3610F8933;
	latitude 436.435157569;
};

object overhead_line {
	phases B;
	from node3610F8933;
	name 3610;
	to node43743610;
	longitude 60.7578055957;
	length 281.883;
	latitude 430.53050189;
	configuration 2808-LINECONFIG;
};

object overhead_line {
	phases B;
	from node43743610;
	name 4374;
	longitude 63.0429580274;
	to node43524374;
	length 356.059;
	latitude 423.069659496;
	configuration 2808-LINECONFIG;
};

object overhead_line {
	phases B;
	from node43524374;
	name 4352;
	longitude 63.5109369746;
	to node42834352;
	length 309.921;
	latitude 414.704376614;
	configuration 2808-LINECONFIG;
};

object overhead_line {
	phases B;
	from node42834352;
	name 4283;
	longitude 61.921810603;
	to node35934283;
	length 441.06;
	latitude 403.468753911;
	configuration 2808-LINECONFIG;
};

object overhead_line {
	phases B;
	from node35934283;
	name 3593;
	longitude 63.8378315898;
	to node41943593;
	length 449.988;
	latitude 392.349173483;
	configuration 2808-LINECONFIG;
};

object overhead_line {
	phases B;
	from node41943593;
	name 4194;
	longitude 65.3837881687;
	to node41684194;
	length 362.992;
	latitude 383.379783169;
	configuration 2808-LINECONFIG;
};

object overhead_line {
	phases B;
	from node41684194;
	name 4168;
	longitude 66.7889799567;
	to nodeT121730912384168;
	length 329.972;
	latitude 375.226123446;
	configuration 2808-LINECONFIG;
};

object overhead_line {
	phases B;
	from nodeT121731026584224;
	name 3606;
	longitude 56.2247324406;
	to node43733606;
	length 359.866;
	latitude 430.035615713;
	configuration 2918-LINECONFIG;
};

object overhead_line {
	phases B;
	from node43733606;
	name 4373;
	longitude 53.2642000798;
	to node41144373;
	length 400.46;
	latitude 422.663518192;
	configuration 2918-LINECONFIG;
};

object overhead_line {
	phases B;
	from node41144373;
	name 4114;
	longitude 50.6074191405;
	to node43444114;
	length 365.898;
	latitude 415.786300185;
	configuration 2918-LINECONFIG;
};

object overhead_line {
	phases B;
	from node43444114;
	name 4344;
	longitude 47.7016296956;
	to node43324344;
	length 307.351;
	latitude 413.028596293;
	configuration 2918-LINECONFIG;
};

object overhead_line {
	phases B;
	from node43324344;
	name 4332;
	longitude 45.3245087499;
	to nodeT121730373864332;
	length 250.984;
	latitude 410.810134359;
	configuration 2918-LINECONFIG;
};

object overhead_line {
	phases B;
	from nodeT121730373864332;
	name 4304;
	longitude 42.201941049;
	to node42934304;
	length 333.421;
	latitude 407.595080718;
	configuration 2918-LINECONFIG;
};

object overhead_line {
	phases B;
	from node42934304;
	name 4293;
	to node40054293;
	longitude 39.4053264478;
	length 297.931;
	latitude 404.769116663;
	configuration 2918-LINECONFIG;
};

object overhead_line {
	phases B;
	from node40054293;
	name 4005;
	longitude 35.8313610996;
	to node39934005;
	length 380.607;
	latitude 401.168386444;
	configuration 2918-LINECONFIG;
};

object overhead_line {
	phases B;
	from node39934005;
	name 3993;
	longitude 34.349214333;
	to nodeT121730359703993;
	length 158.299;
	latitude 399.639353813;
	configuration 2918-LINECONFIG;
};

object overhead_line {
	phases B;
	from nodeT121730359703993;
	name 3983;
	longitude 31.5888911458;
	to node574643983;
	length 296.054;
	latitude 396.697345817;
	configuration 2918-LINECONFIG;
};

object underground_line {
	phases B;
	from node574643983;
	name 57464;
	longitude 31.5888948115;
	to nodeF837357464;
	length 19.116;
	latitude 396.175402214;
	configuration 72487-LINECONFIG;
};

object fuse {
	phases B;
	from nodeF837357464;
	name F8373;
	current_limit 9999.0 A;
	longitude 31.5888948115;
	to node57465F8373;
	latitude 396.175402214;
};

object underground_line {
	phases B;
	from node57465F8373;
	name 57465;
	to node5746357465;
	longitude 31.5890414456;
	length 780.934;
	latitude 374.852740686;