Clear
new object=circuit.240_node_test_system       
edit object=vsource.source bus1=eq_source_bus.1.2.3 phases=3 angle=0.00000 pu=1.00000 basekv=69.00000 r1=4.54263687 x1=10.52743053 r0=7.36552668 x0=24.50463867 
!new object=transformer.Sub_Xfmr phases=3 windings=2 xhl=6.26591063 wdg=1 bus=eq_source_bus.1.2.3   conn=delta kv=69.000000 kva=10000.00000000 %r=0.62659091 wdg=2 bus=bus_Xfmr.1.2.3.0      conn=wye   kv=13.800000 kva=10000.00000000 %r=0.62659091
new object=transformer.Sub_Xfmr phases=3 windings=2 xhl=6.26591063 wdgs=[1,2] buses=[eq_source_bus.1.2.3,bus_Xfmr.1.2.3.0] conns=[delta,wye] kvs=[69.000000,13.800000] kvas=[10000.00000000,10000.00000000] %rs=[0.62659091,0.62659091]
!new object=transformer.sub_regulator_A phases=1 bank=Reg1 windings=2 xhl=0.0100000 wdg=1 bus=bus_Xfmr.1 conn=wye kv=7.9677 kva=3500 %r=0.00100000 wdg=2 bus=bus1.1     conn=wye kv=7.9677 kva=3500 %r=0.00100000 numtaps=32 maxtap=1.1000 mintap=0.9000  
new object=transformer.sub_regulator_A phases=1 bank=Reg1 windings=2 xhl=0.0100000 wdgs=[1,2] buses=[bus_Xfmr.1,bus1.1] conns=[wye,wye] kvs=[7.9677,7.9677] kvas=[3500,3500] %rs=[0.00100000,0.00100000] numtaps=32 maxtap=1.1000 mintap=0.9000
!new object=transformer.sub_regulator_B phases=1 bank=Reg1 windings=2 xhl=0.0100000 wdg=1 bus=bus_Xfmr.2 conn=wye kv=7.9677 kva=3500 %r=0.00100000 wdg=2 bus=bus1.2     conn=wye kv=7.9677 kva=3500 %r=0.00100000 numtaps=32 maxtap=1.1000 mintap=0.9000
new object=transformer.sub_regulator_B phases=1 bank=Reg1 windings=2 xhl=0.0100000 wdgs=[1,2] buses=[bus_Xfmr.2,bus1.2] conns=[wye,wye] kvs=[7.9677,7.9677] kvas=[3500,3500] %rs=[0.00100000,0.00100000] numtaps=32 maxtap=1.1000 mintap=0.9000
!new object=transformer.sub_regulator_C phases=1 bank=Reg1 windings=2 xhl=0.0100000 wdg=1 bus=bus_Xfmr.3 conn=wye kv=7.9677 kva=3500 %r=0.00100000 wdg=2 bus=bus1.3     conn=wye kv=7.9677 kva=3500 %r=0.00100000 numtaps=32 maxtap=1.1000 mintap=0.9000
new object=transformer.sub_regulator_C phases=1 bank=Reg1 windings=2 xhl=0.0100000 wdgs=[1,2] buses=[bus_Xfmr.3,bus1.3] conns=[wye,wye] kvs=[7.9677,7.9677] kvas=[3500,3500] %rs=[0.00100000,0.00100000] numtaps=32 maxtap=1.1000 mintap=0.9000
new object=regcontrol.Reg_contr_A transformer=sub_regulator_A bus=bus1.1 Winding=2 vreg=123.00000 R=0.00000 X=0.00000 Band=2  PTratio=66.395279 vLimit=129.00000  
new object=regcontrol.Reg_contr_B transformer=sub_regulator_B bus=bus1.2 Winding=2 vreg=123.00000 R=0.00000 X=0.00000 Band=2  PTratio=66.395279 vLimit=129.00000   
new object=regcontrol.Reg_contr_C transformer=sub_regulator_C bus=bus1.3 Winding=2 vreg=123.00000 R=0.00000 X=0.00000 Band=2  PTratio=66.395279 vLimit=129.00000  
new object=linecode.OH_3p_type1 nphases=3 units=mi rmatrix=[0.615927|0.170927,0.615927|0.170927,0.170927,0.615927] xmatrix=[1.209389|0.433188,1.209389|0.433188,0.433188,1.209389]
new object=linecode.OH_2p_type2 nphases=2 units=mi rmatrix=[0.589255|0.169495,0.589255]  xmatrix=[1.074856|0.387876,1.074856]
new object=linecode.OH_1p_type2 nphases=1 units=mi rmatrix=[0.592473]  xmatrix=[1.065821]
new object=linecode.OH_3p_type5 nphases=3 units=mi rmatrix=[1.191602|0.234849,1.191602|0.234849,0.234849,1.191602]  xmatrix=[1.209452|0.489263,1.209452|0.489263,0.489263,1.209452] 
new object=linecode.OH_1p_type5 nphases=1 units=mi rmatrix=[1.194260]  xmatrix=[1.205420]
new object=linecode.UG_3p_type1 nphases=3 units=mi rmatrix=[1.009423|0.409732,1.009423|0.409732,0.409732,1.009423]  xmatrix=[0.493164|0.100849,0.493164|0.100849,0.100849,0.493164]  cmatrix=[286.101593|0.000000,286.101593|0.000000,0.000000,286.101593]   
new object=linecode.UG_3p_type2 nphases=3 units=mi rmatrix=[1.692577|0.550087,1.692577|0.550087,0.550087,1.692577]  xmatrix=[0.791756|0.344931,0.791756|0.344931,0.344931,0.791756]  cmatrix=[207.880539|0.000000,207.880539|0.000000,0.000000,207.880539]
new object=linecode.UG_1p_type2 nphases=1 units=mi rmatrix=[1.675338]  xmatrix=[1.210007]  cmatrix=[207.880539]
new object=linecode.T_type1 nphases=3 units=ft rmatrix=[41.13504|0,41.13504|0,0,41.13504] xmatrix=[65.51136|0,65.51136|0,0,65.51136]
new object=linecode.T_type2 nphases=3 units=ft rmatrix=[57.63984|0,57.63984|0,0,57.63984] xmatrix=[48.49872|0,48.49872|0,0,48.49872]
new object=linecode.T_type3 nphases=1 units=ft rmatrix=[25.392] xmatrix=[53.3232]
new object=linecode.T_type4 nphases=1 units=ft rmatrix=[101.31408] xmatrix=[143.21088]
new object=linecode.T_type5 nphases=3 units=ft rmatrix=[106.6464|0,106.6464|0,0,106.6464] xmatrix=[73.2136|0,73.2136|0,0,73.2136]
new object=linecode.T_type6 nphases=1 units=ft rmatrix=[33.773617] xmatrix=[35.805113]
new object=linecode.T_type7 nphases=1 units=ft rmatrix=[20.145667] xmatrix=[21.965548]
new object=linecode.T_type8 nphases=1 units=ft rmatrix=[13.966534] xmatrix=[17.140746]
new object=linecode.T_type9 nphases=3 units=ft rmatrix=[11.4264|0,11.4264|0,0,11.4264] xmatrix=[28.566|0,28.566|0,0,28.566]
new object=linecode.T_type10 nphases=1 units=ft rmatrix=[70.255896] xmatrix=[40.629916]
new object=linecode.T_type11 nphases=3 units=ft rmatrix=[18.6208|0,18.6208|0,0,18.6208] xmatrix=[39.3576|0,39.3576|0,0,39.3576]
new object=linecode.T_type12 nphases=1 units=ft rmatrix=[7.110235] xmatrix=[10.665353]
new object=linecode.T_type13 nphases=3 units=ft rmatrix=[6.09408|0,6.09408|0,0,6.09408] xmatrix=[22.47192|0,22.47192|0,0,22.47192]
new object=line.L_1001_1002 phases=3 bus1=bus1001.1.2.3 bus2=bus1002.1.2.3  length=2967 units=ft linecode=UG_3p_type1		         
new object=line.L_1002_1003 phases=3 bus1=bus1002.1.2.3 bus2=bus1003.1.2.3 length=372 units=ft linecode=UG_3p_type2
new object=line.L_1002_1004 phases=3 bus1=bus1002.1.2.3 bus2=bus1004.1.2.3 length=638 units=ft linecode=OH_3p_type1
new object=line.L_1004_1005 phases=3 bus1=bus1004.1.2.3 bus2=bus1005.1.2.3 length=394 units=ft linecode=OH_3p_type1
new object=line.L_1005_1006 phases=3 bus1=bus1005.1.2.3 bus2=bus1006.1.2.3 length=1049 units=ft linecode=OH_3p_type1B
new object=line.L_1006_1007 phases=2 bus1=bus1006.1.2 bus2=bus1007.1.2 length=2000 units=ft linecode=OH_2p_type2
new object=line.L_1006_1008 phases=3 bus1=bus1006.1.2.3 bus2=bus1008.1.2.3 length=454 units=ft linecode=OH_3p_type1
new object=line.L_1008_1009 phases=3 bus1=bus1008.1.2.3 bus2=bus1009.1.2.3 length=1082 units=ft linecode=OH_3p_type1
new object=line.L_1009_1010 phases=3 bus1=bus1009.1.2.3 bus2=bus1010.1.2.3 length=169 units=ft linecode=OH_3p_type1
new object=line.L_1009_1011 phases=3 bus1=bus1009.1.2.3 bus2=bus1011.1.2.3 length=60 units=ft linecode=UG_3p_type2
new object=line.L_1011_1012 phases=3 bus1=bus1011.1.2.3 bus2=bus1012.1.2.3 length=60 units=ft linecode=UG_3p_type2
new object=line.L_1012_1013 phases=3 bus1=bus1012.1.2.3 bus2=bus1013.1.2.3 length=306 units=ft linecode=UG_3p_type2B
new object=line.L_1013_1014 phases=1 bus1=bus1013.2.0 bus2=bus1014.2.0 length=208 units=ft linecode=UG_1p_type2B
new object=line.L_1014_1015 phases=1 bus1=bus1014.2.0 bus2=bus1015.2.0 length=126 units=ft linecode=UG_1p_type2C
new object=line.L_1013_1016 phases=1 bus1=bus1013.3.0 bus2=bus1016.3.0 length=468 units=ft linecode=UG_1p_type2C
new object=line.L_1016_1017 phases=1 bus1=bus1016.3.0 bus2=bus1017.3.0 length=71 units=ft linecode=UG_1p_type2
new object=line.L_1003_1003_L phases=3 bus1=bus1003.1.2.3.0 bus2=T_bus1003_L.1.2.3.0 length=1 units=ft linecode=T_type1
new object=line.L_1004_1004_L phases=3 bus1=bus1004.1.2.3.0 bus2=T_bus1004_L.1.2.3.0 length=1 units=ft linecode=T_type2
new object=line.L_1005_1005_L phases=3 bus1=bus1005.1.2.3.0 bus2=T_bus1005_L.1.2.3.0 length=1 units=ft linecode=T_type2
new object=line.L_1006_1006_L_1 phases=1 bus1=bus1006.1.0 bus2=T_bus1006_L.1.0 length=1 units=ft linecode=T_type3
new object=line.L_1006_1006_L_2 phases=1 bus1=bus1006.2.0 bus2=T_bus1006_L.2.0 length=1 units=ft linecode=T_type3
new object=line.L_1007_1007_L_1 phases=1 bus1=bus1007.1.0 bus2=T_bus1007_L.1.0 length=1 units=ft linecode=T_type4
new object=line.L_1007_1007_L_2 phases=1 bus1=bus1007.2.0 bus2=T_bus1007_L.2.0 length=1 units=ft linecode=T_type4
new object=line.L_1008_1008_L phases=3 bus1=bus1008.1.2.3.0 bus2=T_bus1008_L.1.2.3.0 length=1 units=ft linecode=T_type5
new object=line.L_1009_1009_L phases=3 bus1=bus1009.1.2.3.0 bus2=T_bus1009_L.1.2.3.0 length=1 units=ft linecode=T_type2
new object=line.L_1010_1010_L phases=3 bus1=bus1010.1.2.3.0 bus2=T_bus1010_L.1.2.3.0 length=1 units=ft linecode=T_type5
new object=line.L_1011_1011_L phases=1 bus1=bus1011.1.0 bus2=T_bus1011_L.1.0 length=1 units=ft linecode=T_type6
new object=line.L_1012_1012_L phases=1 bus1=bus1012.2.0 bus2=T_bus1012_L.2.0 length=1 units=ft linecode=T_type7
new object=line.L_1013_1013_L phases=3 bus1=bus1013.1.2.3.0 bus2=T_bus1013_L.1.2.3.0 length=1 units=ft linecode=T_type5
new object=line.L_1014_1014_L phases=1 bus1=bus1014.2.0 bus2=T_bus1014_L.2.0 length=1 units=ft linecode=T_type6
new object=line.L_1015_1015_L phases=1 bus1=bus1015.2.0 bus2=T_bus1015_L.2.0 length=1 units=ft linecode=T_type6
new object=line.L_1016_1016_L phases=1 bus1=bus1016.3.0 bus2=T_bus1016_L.3.0 length=1 units=ft linecode=T_type8
new object=line.L_1017_1017_L phases=1 bus1=bus1017.3.0 bus2=T_bus1017_L.3.0 length=1 units=ft linecode=T_type7
new object=line.L_2001_2002 phases=3 bus1=bus2001.1.2.3 bus2=bus2002.1.2.3 length=1388 units=ft linecode=UG_3p_type1
new object=line.L_2002_2003 phases=3 bus1=bus2002.1.2.3 bus2=bus2003.1.2.3 length=1281 units=ft linecode=OH_3p_type1
new object=line.L_2003_2004 phases=3 bus1=bus2003.1.2.3 bus2=bus2004.1.2.3 length=798 units=ft linecode=OH_3p_type1
new object=line.L_2004_2005 phases=3 bus1=bus2004.1.2.3 bus2=bus2005.1.2.3 length=317 units=ft linecode=OH_3p_type1
new object=line.L_2005_2006 phases=3 bus1=bus2005.1.2.3 bus2=bus2006.1.2.3 length=145 units=ft linecode=OH_3p_type1
new object=line.L_2006_2007 phases=1 bus1=bus2006.1 bus2=bus2007.1 length=245 units=ft linecode=OH_1p_type5
new object=line.L_2007_2008 phases=1 bus1=bus2007.1 bus2=bus2008.1 length=125 units=ft linecode=UG_1p_type2
new object=line.L_2007_2009 phases=1 bus1=bus2007.1 bus2=bus2009.1 length=161 units=ft linecode=OH_1p_type2
new object=line.L_2006_2010 phases=3 bus1=bus2006.1.2.3 bus2=bus2010.1.2.3 length=170 units=ft linecode=OH_3p_type1
new object=line.L_2010_2011 phases=3 bus1=bus2010.1.2.3 bus2=bus2011.1.2.3 length=275 units=ft linecode=OH_3p_type1
new object=line.L_2011_2012 phases=3 bus1=bus2011.1.2.3 bus2=bus2012.1.2.3 length=503 units=ft linecode=OH_3p_type1
new object=line.L_2013_2014 phases=3 bus1=bus2013.1.2.3 bus2=bus2014.1.2.3 length=268 units=ft linecode=OH_3p_type1
new object=line.L_2014_2015 phases=1 bus1=bus2014.2 bus2=bus2015.2 length=120 units=ft linecode=UG_1p_type2
new object=line.L_2014_2016 phases=3 bus1=bus2014.1.2.3 bus2=bus2016.1.2.3 length=257 units=ft linecode=OH_3p_type1
new object=line.L_2016_2017 phases=3 bus1=bus2016.1.2.3 bus2=bus2017.1.2.3 length=174 units=ft linecode=UG_3p_type2
new object=line.L_2017_2018 phases=3 bus1=bus2017.1.2.3 bus2=bus2018.1.2.3 length=447 units=ft linecode=UG_3p_type2
new object=line.L_2013_2019 phases=3 bus1=bus2013.1.2.3 bus2=bus2019.1.2.3 length=45 units=ft linecode=OH_3p_type1
new object=line.L_2019_2020 phases=1 bus1=bus2019.2 bus2=bus2020.2 length=642 units=ft linecode=UG_1p_type2
new object=line.L_2019_2021 phases=3 bus1=bus2019.1.2.3 bus2=bus2021.1.2.3 length=43 units=ft linecode=OH_3p_type1
new object=line.L_2021_2022 phases=1 bus1=bus2021.3 bus2=bus2022.3 length=205 units=ft linecode=UG_1p_type2
new object=line.L_2022_2023 phases=1 bus1=bus2022.3 bus2=bus2023.3 length=150 units=ft linecode=UG_1p_type2
new object=line.L_2023_2024 phases=1 bus1=bus2023.3 bus2=bus2024.3 length=408 units=ft linecode=UG_1p_type2
new object=line.L_2024_2025 phases=1 bus1=bus2024.3 bus2=bus2025.3 length=331 units=ft linecode=UG_1p_type2
new object=line.L_2026_2027 phases=3 bus1=bus2026.1.2.3 bus2=bus2027.1.2.3 length=369 units=ft linecode=OH_3p_type1
new object=line.L_2027_2028 phases=3 bus1=bus2027.1.2.3 bus2=bus2028.1.2.3 length=285 units=ft linecode=UG_3p_type2
new object=line.L_2028_2029 phases=3 bus1=bus2028.1.2.3 bus2=bus2029.1.2.3 length=131 units=ft linecode=UG_3p_type2
new object=line.L_2029_2030 phases=3 bus1=bus2029.1.2.3 bus2=bus2030.1.2.3 length=165 units=ft linecode=UG_3p_type2
new object=line.L_2030_2031 phases=3 bus1=bus2030.1.2.3 bus2=bus2031.1.2.3 length=245 units=ft linecode=UG_3p_type2
new object=line.L_2027_2032 phases=3 bus1=bus2027.1.2.3 bus2=bus2032.1.2.3 length=149 units=ft linecode=OH_3p_type1
new object=line.L_2032_2033 phases=3 bus1=bus2032.1.2.3 bus2=bus2033.1.2.3 length=289 units=ft linecode=OH_3p_type1
new object=line.L_2033_2034 phases=3 bus1=bus2033.1.2.3 bus2=bus2034.1.2.3 length=185 units=ft linecode=OH_3p_type5
new object=line.L_2033_2035 phases=3 bus1=bus2033.1.2.3 bus2=bus2035.1.2.3 length=160 units=ft linecode=OH_3p_type1
new object=line.L_2035_2036 phases=3 bus1=bus2035.1.2.3 bus2=bus2036.1.2.3 length=160 units=ft linecode=OH_3p_type1
new object=line.L_2036_2037 phases=3 bus1=bus2036.1.2.3 bus2=bus2037.1.2.3 length=80 units=ft linecode=OH_3p_type1
new object=line.L_2037_2038 phases=3 bus1=bus2037.1.2.3 bus2=bus2038.1.2.3 length=192 units=ft linecode=OH_3p_type1
new object=line.L_2038_2039 phases=3 bus1=bus2038.1.2.3 bus2=bus2039.1.2.3 length=800 units=ft linecode=OH_3p_type1
new object=line.L_2039_2040 phases=3 bus1=bus2039.1.2.3 bus2=bus2040.1.2.3 length=309 units=ft linecode=OH_3p_type1
new object=line.L_2040_2041 phases=3 bus1=bus2040.1.2.3 bus2=bus2041.1.2.3 length=383 units=ft linecode=OH_3p_type1
new object=line.L_2039_2042 phases=3 bus1=bus2039.1.2.3 bus2=bus2042.1.2.3 length=35 units=ft linecode=UG_3p_type2
new object=line.L_2042_2043 phases=3 bus1=bus2042.1.2.3 bus2=bus2043.1.2.3 length=158 units=ft linecode=UG_3p_type2
new object=line.L_2043_2044 phases=3 bus1=bus2043.1.2.3 bus2=bus2044.1.2.3 length=342 units=ft linecode=UG_3p_type2B
new object=line.L_2044_2045 phases=1 bus1=bus2044.2 bus2=bus2045.2 length=323 units=ft linecode=UG_1p_type2B
new object=line.L_2045_2046 phases=1 bus1=bus2045.2 bus2=bus2046.2 length=330 units=ft linecode=UG_1p_type2B
new object=line.L_2045_2047 phases=1 bus1=bus2045.2 bus2=bus2047.2 length=189 units=ft linecode=UG_1p_type2B
new object=line.L_2047_2048 phases=1 bus1=bus2047.2 bus2=bus2048.2 length=259 units=ft linecode=UG_1p_type2
new object=line.L_2044_2049 phases=3 bus1=bus2044.1.2.3 bus2=bus2049.1.2.3 length=130 units=ft linecode=UG_3p_type2
new object=line.L_2049_2050 phases=3 bus1=bus2049.1.2.3 bus2=bus2050.1.2.3 length=124 units=ft linecode=UG_3p_type2
new object=line.L_2050_2051 phases=3 bus1=bus2050.1.2.3 bus2=bus2051.1.2.3 length=139 units=ft linecode=UG_3p_type2
new object=line.L_2051_2052 phases=3 bus1=bus2051.1.2.3 bus2=bus2052.1.2.3 length=134 units=ft linecode=UG_3p_type2
new object=line.L_2044_2053 phases=3 bus1=bus2044.1.2.3 bus2=bus2053.1.2.3 length=464 units=ft linecode=UG_3p_type2
new object=line.L_2053_2054 phases=3 bus1=bus2053.1.2.3 bus2=bus2054.1.2.3 length=139 units=ft linecode=UG_3p_type2
new object=line.L_2054_2055 phases=1 bus1=bus2054.1.2.3 bus2=bus2055.1.2.3 length=156 units=ft linecode=UG_3p_type2
new object=line.L_2055_2056 phases=1 bus1=bus2055.1.2.3 bus2=bus2056.1.2.3 length=204 units=ft linecode=UG_3p_type2
new object=line.L_2053_2057 phases=3 bus1=bus2053.1.2.3 bus2=bus2057.1.2.3 length=761 units=ft linecode=UG_3p_type2
new object=line.L_2057_2058 phases=3 bus1=bus2057.1.2.3 bus2=bus2058.1.2.3 length=407 units=ft linecode=UG_3p_type2
new object=line.L_2057_2059 phases=3 bus1=bus2057.1.2.3 bus2=bus2059.1.2.3 length=685 units=ft linecode=UG_3p_type2
new object=line.L_2059_2060 phases=3 bus1=bus2059.1.2.3 bus2=bus2060.1.2.3 length=304 units=ft linecode=UG_3p_type2
new object=line.L_2002_2002_L phases=3 bus1=bus2002.1.2.3 bus2=T_bus2002_L.1.2.3 length=1 units=ft linecode=T_type9
new object=line.L_2003_2003_L phases=3 bus1=bus2003.1.2.3.0 bus2=T_bus2003_L.1.2.3.0 length=1 units=ft linecode=T_type2
new object=line.L_2005_2005_L phases=3 bus1=bus2005.1.2.3.0 bus2=T_bus2005_L.1.2.3.0 length=1 units=ft linecode=T_type5
new object=line.L_2008_2008_L phases=1 bus1=bus2008.1.0 bus2=T_bus2008_L.1.0 length=1 units=ft linecode=T_type6
new object=line.L_2009_2009_L phases=1 bus1=bus2009.1.0 bus2=T_bus2009_L.1.0 length=1 units=ft linecode=T_type6
new object=line.L_2010_2010_L phases=3 bus1=bus2010.1.2.3.0 bus2=T_bus2010_L.1.2.3.0 length=1 units=ft linecode=T_type5
new object=line.L_2011_2011_L phases=3 bus1=bus2011.1.2.3.0 bus2=T_bus2011_L.1.2.3.0 length=1 units=ft linecode=T_type5
new object=line.L_2014_2014_L phases=1 bus1=bus2014.2.0 bus2=T_bus2014_L.2.0 length=1 units=ft linecode=T_type7
new object=line.L_2015_2015_L phases=1 bus1=bus2015.2.0 bus2=T_bus2015_L.2.0 length=1 units=ft linecode=T_type6
new object=line.L_2016_2016_L phases=1 bus1=bus2016.2.0 bus2=T_bus2016_L.2.0 length=1 units=ft linecode=T_type6
new object=line.L_2017_2017_L phases=1 bus1=bus2017.2.0 bus2=T_bus2017_L.2.0 length=1 units=ft linecode=T_type6
new object=line.L_2018_2018_L phases=1 bus1=bus2018.2.0 bus2=T_bus2018_L.2.0 length=1 units=ft linecode=T_type6
new object=line.L_2020_2020_L phases=1 bus1=bus2020.2.0 bus2=T_bus2020_L.2.0 length=1 units=ft linecode=T_type6
new object=line.L_2022_2022_L phases=1 bus1=bus2022.3.0 bus2=T_bus2022_L.3.0 length=1 units=ft linecode=T_type6
new object=line.L_2023_2023_L phases=1 bus1=bus2023.3.0 bus2=T_bus2023_L.3.0 length=1 units=ft linecode=T_type10
new object=line.L_2024_2024_L phases=1 bus1=bus2024.3.0 bus2=T_bus2024_L.3.0 length=1 units=ft linecode=T_type6
new object=line.L_2025_2025_L phases=1 bus1=bus2025.3.0 bus2=T_bus2025_L.3.0 length=1 units=ft linecode=T_type6
new object=line.L_2028_2028_L phases=1 bus1=bus2028.1.0 bus2=T_bus2028_L.1.0 length=1 units=ft linecode=T_type6
new object=line.L_2029_2029_L phases=3 bus1=bus2029.1.2.3.0 bus2=T_bus2029_L.1.2.3.0 length=1 units=ft linecode=T_type2
new object=line.L_2030_2030_L phases=3 bus1=bus2030.1.2.3.0 bus2=T_bus2030_L.1.2.3.0 length=1 units=ft linecode=T_type2
new object=line.L_2031_2031_L phases=1 bus1=bus2031.1.0 bus2=T_bus2031_L.1.0 length=1 units=ft linecode=T_type6
new object=line.L_2032_2032_L phases=3 bus1=bus2032.1.2.3.0 bus2=T_bus2032_L.1.2.3.0 length=1 units=ft linecode=T_type5
new object=line.L_2034_2034_L phases=3 bus1=bus2034.1.2.3.0 bus2=T_bus2034_L.1.2.3.0 length=1 units=ft linecode=T_type5
new object=line.L_2035_2035_L phases=3 bus1=bus2035.1.2.3.0 bus2=T_bus2035_L.1.2.3.0 length=1 units=ft linecode=T_type2
new object=line.L_2037_2037_L phases=3 bus1=bus2037.1.2.3.0 bus2=T_bus2037_L.1.2.3.0 length=1 units=ft linecode=T_type5
new object=line.L_2040_2040_L phases=3 bus1=bus2040.1.2.3.0 bus2=T_bus2040_L.1.2.3.0 length=1 units=ft linecode=T_type9
new object=line.L_2041_2041_L phases=3 bus1=bus2041.1.2.3.0 bus2=T_bus2041_L.1.2.3.0 length=1 units=ft linecode=T_type5
new object=line.L_2042_2042_L phases=3 bus1=bus2042.1.2.3.0 bus2=T_bus2042_L.1.2.3.0 length=1 units=ft linecode=T_type2
new object=line.L_2043_2043_L phases=3 bus1=bus2043.1.2.3.0 bus2=T_bus2043_L.1.2.3.0 length=1 units=ft linecode=T_type2
new object=line.L_2045_2045_L phases=1 bus1=bus2045.2.0 bus2=T_bus2045_L.2.0 length=1 units=ft linecode=T_type10
new object=line.L_2046_2046_L phases=1 bus1=bus2046.2.0 bus2=T_bus2046_L.2.0 length=1 units=ft linecode=T_type8
new object=line.L_2047_2047_L phases=1 bus1=bus2047.2.0 bus2=T_bus2047_L.2.0 length=1 units=ft linecode=T_type8
new object=line.L_2048_2048_L phases=1 bus1=bus2048.2.0 bus2=T_bus2048_L.2.0 length=1 units=ft linecode=T_type8
new object=line.L_2049_2049_L phases=1 bus1=bus2049.3.0 bus2=T_bus2049_L.3.0 length=1 units=ft linecode=T_type7
new object=line.L_2050_2050_L phases=1 bus1=bus2050.3.0 bus2=T_bus2050_L.3.0 length=1 units=ft linecode=T_type7
new object=line.L_2051_2051_L phases=1 bus1=bus2051.3.0 bus2=T_bus2051_L.3.0 length=1 units=ft linecode=T_type7
new object=line.L_2052_2052_L phases=3 bus1=bus2052.1.2.3.0 bus2=T_bus2052_L.1.2.3.0 length=1 units=ft linecode=T_type11
new object=line.L_2053_2053_L phases=3 bus1=bus2053.1.2.3.0 bus2=T_bus2053_L.1.2.3.0 length=1 units=ft linecode=T_type11
new object=line.L_2054_2054_L phases=1 bus1=bus2054.1.0 bus2=T_bus2054_L.1.0 length=1 units=ft linecode=T_type7
new object=line.L_2055_2055_L phases=1 bus1=bus2055.1.0 bus2=T_bus2055_L.1.0 length=1 units=ft linecode=T_type8
new object=line.L_2056_2056_L phases=1 bus1=bus2056.1.0 bus2=T_bus2056_L.1.0 length=1 units=ft linecode=T_type6
new object=line.L_2058_2058_L phases=3 bus1=bus2058.1.2.3.0 bus2=T_bus2058_L.1.2.3.0 length=1 units=ft linecode=T_type9
new object=line.L_2059_2059_L phases=1 bus1=bus2059.2.0 bus2=T_bus2059_L.2.0 length=1 units=ft linecode=T_type6
new object=line.L_2060_2060_L phases=1 bus1=bus2060.2.0 bus2=T_bus2060_L.2.0 length=1 units=ft linecode=T_type6
new object=line.L_3001_3003 phases=3 bus1=bus3001.1.2.3 bus2=bus3003.1.2.3 length=2307 units=ft linecode=UG_3p_type1
new object=line.L_3003_3002 phases=3 bus1=bus3003.1.2.3 bus2=bus3002.1.2.3 length=85 units=ft linecode=UG_3p_type2
new object=line.L_3003_3004 phases=3 bus1=bus3003.1.2.3 bus2=bus3004.1.2.3 length=81 units=ft linecode=UG_3p_type2
new object=line.L_3003_3005 phases=3 bus1=bus3003.1.2.3 bus2=bus3005.1.2.3 length=1997 units=ft linecode=UG_3p_type1
new object=line.L_3005_3006 phases=3 bus1=bus3005.1.2.3 bus2=bus3006.1.2.3 length=311 units=ft linecode=OH_3p_type1
new object=line.L_3006_3007 phases=3 bus1=bus3006.1.2.3 bus2=bus3007.1.2.3 length=370 units=ft linecode=OH_3p_type1
new object=line.L_3005_3008 phases=3 bus1=bus3005.1.2.3 bus2=bus3008.1.2.3 length=136 units=ft linecode=OH_3p_type1
new object=line.L_3008_3009 phases=1 bus1=bus3008.1 bus2=bus3009.1 length=161 units=ft linecode=OH_1p_type5
new object=line.L_3009_3010 phases=1 bus1=bus3009.1 bus2=bus3010.1 length=347 units=ft linecode=OH_1p_type5
new object=line.L_3010_3011 phases=1 bus1=bus3010.1 bus2=bus3011.1 length=265 units=ft linecode=OH_1p_type5
new object=line.L_3011_3012 phases=1 bus1=bus3011.1 bus2=bus3012.1 length=312 units=ft linecode=OH_1p_type5
new object=line.L_3008_3013 phases=1 bus1=bus3008.2 bus2=bus3013.2 length=170 units=ft linecode=OH_1p_type5
new object=line.L_3013_3014 phases=1 bus1=bus3013.2 bus2=bus3014.2 length=295 units=ft linecode=OH_1p_type5
new object=line.L_3008_3015 phases=3 bus1=bus3008.1.2.3 bus2=bus3015.1.2.3 length=322 units=ft linecode=OH_3p_type1
new object=line.L_3015_3016 phases=1 bus1=bus3015.2 bus2=bus3016.2 length=210 units=ft linecode=OH_1p_type5
new object=line.L_3016_3017 phases=1 bus1=bus3016.2 bus2=bus3017.2 length=259 units=ft linecode=OH_1p_type5
new object=line.L_3015_3018 phases=1 bus1=bus3015.3 bus2=bus3018.3 length=181 units=ft linecode=OH_1p_type5
new object=line.L_3018_3019 phases=1 bus1=bus3018.3 bus2=bus3019.3 length=281 units=ft linecode=OH_1p_type5
new object=line.L_3019_3020 phases=1 bus1=bus3019.3 bus2=bus3020.3 length=307 units=ft linecode=OH_1p_type5
new object=line.L_3020_3021 phases=1 bus1=bus3020.3 bus2=bus3021.3 length=303 units=ft linecode=OH_1p_type5
new object=line.L_3015_3022 phases=3 bus1=bus3015.1.2.3 bus2=bus3022.1.2.3 length=289 units=ft linecode=OH_3p_type1
new object=line.L_3022_3023 phases=1 bus1=bus3022.1 bus2=bus3023.1 length=181 units=ft linecode=OH_1p_type5
new object=line.L_3023_3024 phases=1 bus1=bus3023.1 bus2=bus3024.1 length=320 units=ft linecode=OH_1p_type5
new object=line.L_3024_3025 phases=1 bus1=bus3024.1 bus2=bus3025.1 length=331 units=ft linecode=OH_1p_type5
new object=line.L_3022_3026 phases=1 bus1=bus3022.1 bus2=bus3026.1 length=164 units=ft linecode=OH_1p_type5
new object=line.L_3026_3027 phases=1 bus1=bus3026.1 bus2=bus3027.1 length=368 units=ft linecode=OH_1p_type5
new object=line.L_3027_3028 phases=1 bus1=bus3027.1 bus2=bus3028.1 length=241 units=ft linecode=OH_1p_type5
new object=line.L_3028_3029 phases=1 bus1=bus3028.1 bus2=bus3029.1 length=317 units=ft linecode=OH_1p_type5
new object=line.L_3022_3030 phases=3 bus1=bus3022.1.2.3 bus2=bus3030.1.2.3 length=304 units=ft linecode=OH_3p_type1
new object=line.L_3030_3035 phases=3 bus1=bus3030.1.2.3 bus2=bus3035.1.2.3 length=103 units=ft linecode=OH_3p_type1
new object=line.L_3035_3036 phases=3 bus1=bus3035.1.2.3 bus2=bus3036.1.2.3 length=271 units=ft linecode=OH_3p_type1
new object=line.L_3036_3037 phases=3 bus1=bus3036.1.2.3 bus2=bus3037.1.2.3 length=136 units=ft linecode=OH_3p_type1
new object=line.L_3037_3038 phases=3 bus1=bus3037.1.2.3 bus2=bus3038.1.2.3 length=252 units=ft linecode=OH_3p_type1
new object=line.L_3038_3039 phases=3 bus1=bus3038.1.2.3 bus2=bus3039.1.2.3 length=235 units=ft linecode=OH_3p_type1
new object=line.L_3039_3053 phases=3 bus1=bus3039.1.2.3 bus2=bus3053.1.2.3 length=263 units=ft linecode=OH_3p_type1
new object=line.L_3053_3054 phases=3 bus1=bus3053.1.2.3 bus2=bus3054.1.2.3 length=280 units=ft linecode=UG_3p_type2
new object=line.L_3053_3055 phases=1 bus1=bus3053.2 bus2=bus3055.2 length=1335 units=ft linecode=UG_1p_type2
new object=line.L_3055_3056 phases=1 bus1=bus3055.2 bus2=bus3056.2 length=128 units=ft linecode=UG_1p_type2
new object=line.L_3056_3057 phases=1 bus1=bus3056.2 bus2=bus3057.2 length=178 units=ft linecode=UG_1p_type2
new object=line.L_3057_3058 phases=1 bus1=bus3057.2 bus2=bus3058.2 length=178 units=ft linecode=UG_1p_type2
new object=line.L_3058_3059 phases=1 bus1=bus3058.2 bus2=bus3059.2 length=274 units=ft linecode=UG_1p_type2
new object=line.L_3059_3060 phases=1 bus1=bus3059.2 bus2=bus3060.2 length=77 units=ft linecode=UG_1p_type2
new object=line.L_3060_3061 phases=1 bus1=bus3060.2 bus2=bus3061.2 length=184 units=ft linecode=UG_1p_type2
new object=line.L_3055_3062 phases=1 bus1=bus3055.2 bus2=bus3062.2 length=443 units=ft linecode=UG_1p_type2
new object=line.L_3062_3063 phases=1 bus1=bus3062.2 bus2=bus3063.2 length=198 units=ft linecode=UG_1p_type2
new object=line.L_3063_3064 phases=1 bus1=bus3063.2 bus2=bus3064.2 length=157 units=ft linecode=UG_1p_type2
new object=line.L_3064_3065 phases=1 bus1=bus3064.2 bus2=bus3065.2 length=205 units=ft linecode=UG_1p_type2
new object=line.L_3065_3066 phases=1 bus1=bus3065.2 bus2=bus3066.2 length=123 units=ft linecode=UG_1p_type2
new object=line.L_3066_3067 phases=1 bus1=bus3066.2 bus2=bus3067.2 length=274 units=ft linecode=UG_1p_type2
new object=line.L_3030_3040 phases=3 bus1=bus3030.1.2.3 bus2=bus3040.1.2.3 length=332 units=ft linecode=OH_3p_type1
new object=line.L_3040_3044 phases=1 bus1=bus3040.3 bus2=bus3044.3 length=144 units=ft linecode=OH_1p_type5
new object=line.L_3044_3045 phases=1 bus1=bus3044.3 bus2=bus3045.3 length=393 units=ft linecode=OH_1p_type5
new object=line.L_3040_3041 phases=1 bus1=bus3040.3 bus2=bus3041.3 length=121 units=ft linecode=OH_1p_type5
new object=line.L_3041_3042 phases=1 bus1=bus3041.3 bus2=bus3042.3 length=328 units=ft linecode=OH_1p_type5
new object=line.L_3042_3043 phases=1 bus1=bus3042.3 bus2=bus3043.3 length=418 units=ft linecode=OH_1p_type5
new object=line.L_3040_3046 phases=3 bus1=bus3040.1.2.3 bus2=bus3046.1.2.3 length=329 units=ft linecode=OH_3p_type1
new object=line.L_3046_3047 phases=3 bus1=bus3046.1.2.3 bus2=bus3047.1.2.3 length=219 units=ft linecode=OH_3p_type1
new object=line.L_3046_3048 phases=3 bus1=bus3046.1.2.3 bus2=bus3048.1.2.3 length=130 units=ft linecode=OH_3p_type1
new object=line.L_3048_3049 phases=3 bus1=bus3048.1.2.3 bus2=bus3049.1.2.3 length=226 units=ft linecode=OH_3p_type1
new object=line.L_3049_3050 phases=3 bus1=bus3049.1.2.3 bus2=bus3050.1.2.3 length=167 units=ft linecode=OH_3p_type1
new object=line.L_3050_3051 phases=3 bus1=bus3050.1.2.3 bus2=bus3051.1.2.3 length=360 units=ft linecode=OH_3p_type1
new object=line.L_3051_3052 phases=3 bus1=bus3051.1.2.3 bus2=bus3052.1.2.3 length=292 units=ft linecode=OH_3p_type1
new object=line.L_3030_3031 phases=3 bus1=bus3030.1.2.3 bus2=bus3031.1.2.3 length=243 units=ft linecode=OH_3p_type1
new object=line.L_3031_3032 phases=3 bus1=bus3031.1.2.3 bus2=bus3032.1.2.3 length=251 units=ft linecode=OH_3p_type1
new object=line.L_3032_3033 phases=3 bus1=bus3032.1.2.3 bus2=bus3033.1.2.3 length=388 units=ft linecode=OH_3p_type1
new object=line.L_3033_3034 phases=3 bus1=bus3033.1.2.3 bus2=bus3034.1.2.3 length=257 units=ft linecode=OH_3p_type1
new object=line.L_3034_3068 phases=3 bus1=bus3034.1.2.3 bus2=bus3068.1.2.3 length=164 units=ft linecode=OH_3p_type1
new object=line.L_3068_3069 phases=3 bus1=bus3068.1.2.3 bus2=bus3069.1.2.3 length=329 units=ft linecode=OH_3p_type1
new object=line.L_3069_3070 phases=3 bus1=bus3069.1.2.3 bus2=bus3070.1.2.3 length=107 units=ft linecode=UG_3p_type2
new object=line.L_3070_3071 phases=3 bus1=bus3070.1.2.3 bus2=bus3071.1.2.3 length=141 units=ft linecode=UG_3p_type2
new object=line.L_3071_3072 phases=3 bus1=bus3071.1.2.3 bus2=bus3072.1.2.3 length=90 units=ft linecode=UG_3p_type2
new object=line.L_3069_3073 phases=3 bus1=bus3069.1.2.3 bus2=bus3073.1.2.3 length=20 units=ft linecode=OH_3p_type1
new object=line.L_3073_3074 phases=3 bus1=bus3073.1.2.3 bus2=bus3074.1.2.3 length=340 units=ft linecode=OH_3p_type1
new object=line.L_3068_3075 phases=3 bus1=bus3068.1.2.3 bus2=bus3075.1.2.3 length=188 units=ft linecode=OH_3p_type1
new object=line.L_3076_3077 phases=3 bus1=bus3076.1.2.3 bus2=bus3077.1.2.3 length=877 units=ft linecode=OH_3p_type1
new object=line.L_3077_3078 phases=3 bus1=bus3077.1.2.3 bus2=bus3078.1.2.3 length=80 units=ft linecode=OH_3p_type1
new object=line.L_3076_3079 phases=3 bus1=bus3076.1.2.3 bus2=bus3079.1.2.3 length=191 units=ft linecode=OH_3p_type1
new object=line.L_3079_3080 phases=3 bus1=bus3079.1.2.3 bus2=bus3080.1.2.3 length=604 units=ft linecode=OH_3p_type1
new object=line.L_3080_3081 phases=3 bus1=bus3080.1.2.3 bus2=bus3081.1.2.3 length=195 units=ft linecode=OH_3p_type1
new object=line.L_3080_3082 phases=3 bus1=bus3080.1.2.3 bus2=bus3082.1.2.3 length=540 units=ft linecode=OH_3p_type1
new object=line.L_3082_3083 phases=1 bus1=bus3082.1 bus2=bus3083.1 length=125 units=ft linecode=UG_1p_type2
new object=line.L_3083_3084 phases=1 bus1=bus3083.1 bus2=bus3084.1 length=196 units=ft linecode=UG_1p_type2