clock {
	timezone PST+8PDT;
	starttime '2000-01-01 00:00:00';
	stoptime '2000-01-01 01:00:00';
};

#set minimum_timestep=60;
#set profiler=1;
#set relax_naming_rules=1;
module generators;
module tape;
module residential {
	implicit_enduses NONE;
};

module powerflow {
	solver_method NR;
	NR_iteration_limit 50;
};

object overhead_line_conductor {
	resistance 0.000000;
	name NONE;
	geometric_mean_radius 0.000000;
};

object overhead_line_conductor {
	resistance 0.205999;
	name x500_500;
	geometric_mean_radius 0.026000;
};

object overhead_line_conductor {
	resistance 0.105000;
	name x1000000CM_AA;
	geometric_mean_radius 0.036800;
};

object overhead_line_conductor {
	resistance 1.120000;
	name x1_0;
	geometric_mean_radius 0.004460;
};

object overhead_line_conductor {
	resistance 0.306001;
	name x336_400;
	geometric_mean_radius 0.024400;
};

object overhead_line_conductor {
	resistance 0.410000;
	name x250_000;
	geometric_mean_radius 0.017100;
};

object overhead_line_conductor {
	resistance 0.186000;
	name x556_500;
	geometric_mean_radius 0.031100;
};

object overhead_line_conductor {
	resistance 0.196018;
	name DEFAULT;
	geometric_mean_radius 0.028999;
};

object overhead_line_conductor {
	resistance 0.592000;
	name x4_0;
	geometric_mean_radius 0.008140;
};

object overhead_line_conductor {
	resistance 14.871999;
	name x14;
	geometric_mean_radius 0.002080;
};

object line_spacing {
	distance_AN 44.752208;
	name DEFAULTohsps;
	distance_CN 112.464517;
	distance_BC 36.616657;
	distance_AB 36.616657;
	distance_BN 81.030768;
	distance_AC 70.538058;
};

object line_spacing {
	distance_AN 5.656854;
	name x500;
	distance_CN 5.000000;
	distance_BC 4.500000;
	distance_AB 2.500000;
	distance_BN 4.272002;
	distance_AC 7.000000;
};

object line_spacing {
	distance_AN 5.656854;
	name x505;
	distance_CN 24.331050;
	distance_BC 28.861739;
	distance_AB 7.000000;
	distance_BN 5.000000;
	distance_AC 28.000000;
};

object line_spacing {
	distance_AN 5.024938;
	name x510;
	distance_CN 24.005208;
	distance_BC 0.000000;
	distance_AB 29.000000;
	distance_BN 24.005208;
	distance_AC 29.000000;
};

object line_configuration {
	z23 0.000000+0.0j;
	name LINE607;
	z32 0.000000+0.0j;
	z21 0.000000+0.0j;
	z12 0.000000+0.0j;
	z13 0.000000+0.0j;
	z11 1.342500+0.512399j;
	z33 0.000000+0.0j;
	z31 0.000000+0.0j;
	z22 0.000000+0.0j;
};

object line_configuration {
	z23 0.307800+0.0170993j;
	name LINE606;
	z32 0.307800+0.0170993j;
	z21 0.307800+0.0170993j;
	z12 0.307800+0.0170993j;
	z13 0.307800+0.0170993j;
	z11 0.798199+0.4463j;
	z33 0.798199+0.4463j;
	z31 0.307800+0.0170993j;
	z22 0.789100+0.4041j;
};

object line_configuration {
	name olc4;
	spacing x505;
	conductor_N x1_0;
	conductor_A x1_0;
	conductor_C x1_0;
	conductor_B x556_500;
};

object line_configuration {
	name olc5;
	spacing x510;
	conductor_N x1_0;
	conductor_A x1_0;
	conductor_C x1_0;
	conductor_B x556_500;
};

object line_configuration {
	name olc0;
	spacing x500;
	conductor_N x4_0;
	conductor_A x4_0;
	conductor_C x4_0;
	conductor_B x4_0;
};

object line_configuration {
	name olc1;
	spacing x505;
	conductor_N x1_0;
	conductor_A x4_0;
	conductor_C x1_0;
	conductor_B x1_0;
};

object line_configuration {
	name olc2;
	spacing x500;
	conductor_N x4_0;
	conductor_A x556_500;
	conductor_C x556_500;
	conductor_B x556_500;
};

object line_configuration {
	name olc3;
	spacing x505;
	conductor_N x1_0;
	conductor_A x556_500;
	conductor_C x1_0;
	conductor_B x1_0;
};

object transformer_configuration {
	powerC_rating 166.667007;
	name XFM1_XFO;
	primary_voltage 4160.000000;
	secondary_voltage 480.000000;
	connect_type WYE_WYE;
	impedance 0.011000+0.019999j;
	powerB_rating 166.667007;
	powerA_rating 166.667007;
	power_rating 500;
};

object transformer_configuration {
	name SPCTconfigLOAD675B;
	primary_voltage 2401.77711983;
	install_type POLETOP;
	secondary_voltage 120;
	connect_type SINGLE_PHASE_CENTER_TAPPED;
	impedance 0.00033+0.0022j;
	powerB_rating 100;
	power_rating 100;
};

object transformer_configuration {
	powerC_rating 400;
	name SPCTconfigLOAD675C;
	primary_voltage 2401.77711983;
	install_type POLETOP;
	secondary_voltage 120;
	connect_type SINGLE_PHASE_CENTER_TAPPED;
	impedance 0.00033+0.0022j;
	power_rating 400;
};

object transformer_configuration {
	name SPCTconfigLOAD675A;
	primary_voltage 2401.77711983;
	install_type POLETOP;
	secondary_voltage 120;
	connect_type SINGLE_PHASE_CENTER_TAPPED;
	impedance 0.00033+0.0022j;
	powerA_rating 750;
	power_rating 750;
};

object transformer_configuration {
	name SPCTconfigLOAD611A;
	primary_voltage 2401.77711983;
	install_type POLETOP;
	secondary_voltage 120;
	connect_type SINGLE_PHASE_CENTER_TAPPED;
	impedance 0.00033+0.0022j;
	powerA_rating 5;
	power_rating 5;
};

object transformer_configuration {
	name SPCTconfigLOAD611B;
	primary_voltage 2401.77711983;
	install_type POLETOP;
	secondary_voltage 120;
	connect_type SINGLE_PHASE_CENTER_TAPPED;
	impedance 0.00033+0.0022j;
	powerB_rating 5;
	power_rating 5;
};

object transformer_configuration {
	powerC_rating 200;
	name SPCTconfigLOAD611C;
	primary_voltage 2401.77711983;
	install_type POLETOP;
	secondary_voltage 120;
	connect_type SINGLE_PHASE_CENTER_TAPPED;
	impedance 0.00033+0.0022j;
	power_rating 200;
};

object transformer_configuration {
	name SPCTconfigLOAD646A;
	primary_voltage 2401.77711983;
	install_type POLETOP;
	secondary_voltage 120;
	connect_type SINGLE_PHASE_CENTER_TAPPED;
	impedance 0.00033+0.0022j;
	powerA_rating 5;
	power_rating 5;
};

object transformer_configuration {
	name SPCTconfigLOAD646B;
	primary_voltage 2401.77711983;
	install_type POLETOP;
	secondary_voltage 120;
	connect_type SINGLE_PHASE_CENTER_TAPPED;
	impedance 0.00033+0.0022j;
	powerB_rating 300;
	power_rating 300;
};

object transformer_configuration {
	powerC_rating 5;
	name SPCTconfigLOAD646C;
	primary_voltage 2401.77711983;
	install_type POLETOP;
	secondary_voltage 120;
	connect_type SINGLE_PHASE_CENTER_TAPPED;
	impedance 0.00033+0.0022j;
	power_rating 5;
};

object transformer_configuration {
	name SPCTconfigLOAD652A;
	primary_voltage 2401.77711983;
	install_type POLETOP;
	secondary_voltage 120;
	connect_type SINGLE_PHASE_CENTER_TAPPED;
	impedance 0.00033+0.0022j;
	powerA_rating 162.5;
	power_rating 162.5;
};

object transformer_configuration {
	powerC_rating 5;
	name SPCTconfigLOAD652C;
	primary_voltage 2401.77711983;
	install_type POLETOP;
	secondary_voltage 120;
	connect_type SINGLE_PHASE_CENTER_TAPPED;
	impedance 0.00033+0.0022j;
	power_rating 5;
};

object transformer_configuration {
	name SPCTconfigLOAD652B;
	primary_voltage 2401.77711983;
	install_type POLETOP;
	secondary_voltage 120;
	connect_type SINGLE_PHASE_CENTER_TAPPED;
	impedance 0.00033+0.0022j;
	powerB_rating 5;
	power_rating 5;
};

object transformer_configuration {
	name SPCTconfigLOAD692A;
	primary_voltage 2401.77711983;
	install_type POLETOP;
	secondary_voltage 120;
	connect_type SINGLE_PHASE_CENTER_TAPPED;
	impedance 0.00033+0.0022j;
	powerA_rating 5;
	power_rating 5;
};

object transformer_configuration {
	powerC_rating 250;
	name SPCTconfigLOAD692C;
	primary_voltage 2401.77711983;
	install_type POLETOP;
	secondary_voltage 120;
	connect_type SINGLE_PHASE_CENTER_TAPPED;
	impedance 0.00033+0.0022j;
	power_rating 250;
};

object transformer_configuration {
	name SPCTconfigLOAD692B;
	primary_voltage 2401.77711983;
	install_type POLETOP;
	secondary_voltage 120;
	connect_type SINGLE_PHASE_CENTER_TAPPED;
	impedance 0.00033+0.0022j;
	powerB_rating 5;
	power_rating 5;
};

object transformer_configuration {
	name SPCTconfigLOAD634A;
	primary_voltage 2401.77711983;
	install_type POLETOP;
	secondary_voltage 120;
	connect_type SINGLE_PHASE_CENTER_TAPPED;
	impedance 0.00033+0.0022j;
	powerA_rating 200;
	power_rating 200;
};

object transformer_configuration {
	powerC_rating 150;
	name SPCTconfigLOAD634C;
	primary_voltage 2401.77711983;
	install_type POLETOP;
	secondary_voltage 120;
	connect_type SINGLE_PHASE_CENTER_TAPPED;
	impedance 0.00033+0.0022j;
	power_rating 150;
};

object transformer_configuration {
	name SPCTconfigLOAD634B;
	primary_voltage 2401.77711983;
	install_type POLETOP;
	secondary_voltage 120;
	connect_type SINGLE_PHASE_CENTER_TAPPED;
	impedance 0.00033+0.0022j;
	powerB_rating 150;
	power_rating 150;
};

object transformer_configuration {
	name SPCTconfigLOAD671B;
	primary_voltage 2401.77711983;
	install_type POLETOP;
	secondary_voltage 120;
	connect_type SINGLE_PHASE_CENTER_TAPPED;
	impedance 0.00033+0.0022j;
	powerB_rating 450;
	power_rating 450;
};

object transformer_configuration {
	powerC_rating 450;
	name SPCTconfigLOAD671C;
	primary_voltage 2401.77711983;
	install_type POLETOP;
	secondary_voltage 120;
	connect_type SINGLE_PHASE_CENTER_TAPPED;
	impedance 0.00033+0.0022j;
	power_rating 450;
};

object transformer_configuration {
	name SPCTconfigLOAD671A;
	primary_voltage 2401.77711983;
	install_type POLETOP;
	secondary_voltage 120;
	connect_type SINGLE_PHASE_CENTER_TAPPED;
	impedance 0.00033+0.0022j;
	powerA_rating 450;
	power_rating 450;
};

object transformer_configuration {
	name SPCTconfigLOAD645A;
	primary_voltage 2401.77711983;
	install_type POLETOP;
	secondary_voltage 120;
	connect_type SINGLE_PHASE_CENTER_TAPPED;
	impedance 0.00033+0.0022j;
	powerA_rating 5;
	power_rating 5;
};

object transformer_configuration {
	powerC_rating 5;
	name SPCTconfigLOAD645C;
	primary_voltage 2401.77711983;
	install_type POLETOP;
	secondary_voltage 120;
	connect_type SINGLE_PHASE_CENTER_TAPPED;
	impedance 0.00033+0.0022j;
	power_rating 5;
};

object transformer_configuration {
	name SPCTconfigLOAD645B;
	primary_voltage 2401.77711983;
	install_type POLETOP;
	secondary_voltage 120;
	connect_type SINGLE_PHASE_CENTER_TAPPED;
	impedance 0.00033+0.0022j;
	powerB_rating 225;
	power_rating 225;
};

object regulator_configuration {
	Control OUTPUT_VOLTAGE;
	dwell_time 5;
	raise_taps 16;
	name REG650_632_x650REG;
	band_center 2521.869;
	tap_pos_A 1.0000000000000000e+01;
	tap_pos_B 8.0000000000000000e+00;
	connect_type WYE_WYE;
	time_delay 30.0;
	regulation 0.1;
	lower_taps 16;
	control_level INDIVIDUAL;
	tap_pos_C 1.1000000000000000e+01;
	band_width 4807.12264033;
};

object meter {
	phases ABCN;
	name nx650;
	longitude 0.0;
	nominal_voltage 2401.77711983;
	latitude 0.0;
};

object node {
	phases ABCN;
	name nRG60;
	longitude 800.478805158;
	nominal_voltage 2401.77711983;
	latitude -1.58331495464;
};

object node {
	phases ABCN;
	name nx675;
	longitude 1306.55615536;
	nominal_voltage 2401.77711983;
	latitude 1687.01611293;
};

object node {
	phases ABCN;
	name nx634;
	longitude 746.385389388;
	nominal_voltage 2401.77711983;
	latitude 2404.18219804;
};

object node {
	phases ABCN;
	name nx633;
	longitude 746.385389388;
	nominal_voltage 2401.77711983;
	latitude 1200.0;
};

object node {
	phases ABCN;
	name nx680;
	longitude 1541.15645654;
	nominal_voltage 2401.77711983;
	latitude -2.07799489538;
};

object node {
	phases ABCN;
	name nx632;
	longitude 746.385389388;
	nominal_voltage 2401.77711983;
	latitude -4.18220407409;
};

object node {
	phases ABCN;
	name nx671;
	longitude 1305.69694018;
	nominal_voltage 2401.77711983;
	latitude -4.18220407409;
};

object node {
	phases ABCN;
	name nx611;
	longitude 1307.18098387;
	nominal_voltage 2401.77711983;
	latitude -2387.63554808;
};

object node {
	phases ABCN;
	name nx645;
	longitude 746.385389388;
	nominal_voltage 2401.77711983;
	latitude -1217.41840764;
};

object node {
	phases ACN;
	name nx684;
	longitude 1305.64731818;
	nominal_voltage 2401.77711983;
	latitude -1229.23397085;
};

object node {
	phases ABCN;
	name nx646;
	longitude 746.385389388;
	nominal_voltage 2401.77711983;
	latitude -2421.60060568;
};

object node {
	phases ABCN;
	name nx652;
	longitude 1547.23975503;
	nominal_voltage 2401.77711983;
	latitude -1228.36506149;
};

object node {
	phases ABCN;
	name nx7;
	longitude 216.928069741;
	nominal_voltage 2401.77711983;
	latitude -1.61989667324;
};

object node {
	phases ABCN;
	name nx692;
	longitude 1305.66418285;
	nominal_voltage 2401.77711983;
	latitude 1190.92361819;
};

object triplex_meter {
	phases CS;
	name ntpmLOAD634C;
	longitude 744.240353108;
	nominal_voltage 120;
	latitude 2403.47925616;
};

object triplex_meter {
	phases BS;
	name ntpmLOAD634B;
	longitude 743.414045011;
	nominal_voltage 120;
	latitude 2406.35359748;
};

object triplex_meter {
	phases AS;
	name ntpmLOAD634A;
	longitude 748.106468496;
	nominal_voltage 120;
	latitude 2408.56644183;
};

object triplex_meter {
	phases AS;
	name ntpmLOAD611A;
	longitude 1312.12950827;
	nominal_voltage 120;
	latitude -2392.55936121;
};

object triplex_meter {
	phases CS;
	name ntpmLOAD611C;
	longitude 1304.70218262;
	nominal_voltage 120;
	latitude -2389.2364182;
};

object triplex_meter {
	phases BS;
	name ntpmLOAD646B;
	longitude 749.581590818;
	nominal_voltage 120;
	latitude -2420.01339255;
};

object triplex_meter {
	phases CS;
	name ntpmLOAD646C;
	longitude 748.452512687;
	nominal_voltage 120;
	latitude -2426.57662176;
};

object triplex_meter {
	phases AS;
	name ntpmLOAD646A;
	longitude 745.629510645;
	nominal_voltage 120;
	latitude -2417.69340853;
};

object triplex_meter {
	phases CS;
	name ntpmLOAD692C;
	longitude 1303.61188738;
	nominal_voltage 120;
	latitude 1195.82785516;
};

object triplex_meter {
	phases BS;
	name ntpmLOAD692B;
	longitude 1301.7837346;
	nominal_voltage 120;
	latitude 1194.03675591;
};

object triplex_meter {
	phases AS;
	name ntpmLOAD692A;
	longitude 1300.95818761;
	nominal_voltage 120;
	latitude 1190.37633823;
};

object triplex_meter {
	phases AS;
	name ntpmLOAD675A;
	longitude 1308.60196564;
	nominal_voltage 120;
	latitude 1691.89614691;
};

object triplex_meter {
	phases BS;
	name ntpmLOAD675B;
	longitude 1303.76122357;
	nominal_voltage 120;
	latitude 1687.52855888;
};

object triplex_meter {
	phases CS;
	name ntpmLOAD675C;
	longitude 1307.41111462;
	nominal_voltage 120;
	latitude 1686.3771973;
};

object triplex_meter {
	phases AS;
	name ntpmLOAD671A;
	longitude 1301.10738903;
	nominal_voltage 120;
	latitude -8.87446599205;
};

object triplex_meter {
	phases BS;
	name ntpmLOAD671B;
	longitude 1306.45199063;
	nominal_voltage 120;
	latitude -3.85002758452;
};

object triplex_meter {
	phases CS;
	name ntpmLOAD671C;
	longitude 1301.53369467;
	nominal_voltage 120;
	latitude -0.329177972213;
};

object triplex_meter {
	phases BS;
	name ntpmLOAD611B;
	longitude 1306.16701256;
	nominal_voltage 120;
	latitude -2388.2794208;
};

object triplex_meter {
	phases CS;
	name ntpmLOAD645C;
	longitude 744.425839506;
	nominal_voltage 120;
	latitude -1222.3333532;
};

object triplex_meter {
	phases BS;
	name ntpmLOAD645B;
	longitude 743.74070555;
	nominal_voltage 120;
	latitude -1215.59557052;
};

object triplex_meter {
	phases AS;
	name ntpmLOAD645A;
	longitude 743.969121973;
	nominal_voltage 120;
	latitude -1216.53635352;
};

object triplex_meter {
	phases CS;
	name ntpmLOAD652C;
	longitude 1548.48103444;
	nominal_voltage 120;
	latitude -1225.98162406;
};

object triplex_meter {
	phases BS;
	name ntpmLOAD652B;
	longitude 1549.00716954;
	nominal_voltage 120;
	latitude -1227.59552928;
};

object triplex_meter {
	phases AS;
	name ntpmLOAD652A;
	longitude 1543.31856408;
	nominal_voltage 120;
	latitude -1227.44967231;
};

object triplex_node {
	phases AS;
	power_12 0.000+0.000j;
	name ntpnLOAD692A;
	parent ntpmLOAD692A;
	longitude 1300.54165422;
	nominal_voltage 120;
	latitude 1188.31634555;
};

object triplex_node {
	phases BS;
	power_12 0.000+0.000j;
	name ntpnLOAD692B;
	parent ntpmLOAD692B;
	longitude 1297.32101117;
	nominal_voltage 120;
	latitude 1191.51772863;
};

object triplex_node {
	phases CS;
	power_12 170000.000+151000.000j;
	name ntpnLOAD692C;
	parent ntpmLOAD692C;
	longitude 1300.14755947;
	nominal_voltage 120;
	latitude 1191.98670527;
};

object triplex_node {
	phases CS;
	power_12 385000.000+220000.000j;
	name ntpnLOAD671C;
	parent ntpmLOAD671C;
	longitude 1305.42495673;
	nominal_voltage 120;
	latitude -3.35304650549;
};

object triplex_node {
	phases BS;
	power_12 385000.000+220000.000j;
	name ntpnLOAD671B;
	parent ntpmLOAD671B;
	longitude 1304.03800823;
	nominal_voltage 120;
	latitude -5.50540423187;
};

object triplex_node {
	phases AS;
	power_12 385000.000+220000.000j;
	name ntpnLOAD671A;
	parent ntpmLOAD671A;
	longitude 1298.52943936;
	nominal_voltage 120;
	latitude -7.7880102505;
};

object triplex_node {
	phases AS;
	power_12 0.000+0.000j;
	name ntpnLOAD611A;
	parent ntpmLOAD611A;
	longitude 1313.20499167;
	nominal_voltage 120;
	latitude -2397.40893005;
};

object triplex_node {
	phases AS;
	power_12 128000.000+86000.000j;
	name ntpnLOAD652A;
	parent ntpmLOAD652A;
	longitude 1543.7697925;
	nominal_voltage 120;
	latitude -1222.90651841;
};

object triplex_node {
	phases BS;
	power_12 0.000+0.000j;
	name ntpnLOAD652B;
	parent ntpmLOAD652B;
	longitude 1553.06250517;
	nominal_voltage 120;
	latitude -1227.0712908;
};

object triplex_node {
	phases BS;
	power_12 0.000+0.000j;
	name ntpnLOAD611B;
	parent ntpmLOAD611B;
	longitude 1305.21915967;
	nominal_voltage 120;
	latitude -2388.16369151;
};

object triplex_node {
	phases AS;
	power_12 0.000+0.000j;
	name ntpnLOAD646A;
	parent ntpmLOAD646A;
	longitude 748.332661808;
	nominal_voltage 120;
	latitude -2417.56672516;
};

object triplex_node {
	phases CS;
	power_12 0.000+0.000j;
	name ntpnLOAD646C;
	parent ntpmLOAD646C;
	longitude 744.208137603;
	nominal_voltage 120;
	latitude -2428.57382982;
};

object triplex_node {
	phases BS;
	power_12 230000.000+132000.000j;
	name ntpnLOAD646B;
	parent ntpmLOAD646B;
	longitude 747.140846547;
	nominal_voltage 120;
	latitude -2416.25758473;
};

object triplex_node {
	phases BS;
	power_12 68000.000+60000.000j;
	name ntpnLOAD675B;
	parent ntpmLOAD675B;
	longitude 1305.022107;
	nominal_voltage 120;
	latitude 1691.17875221;
};

object triplex_node {
	phases CS;
	power_12 0.000+0.000j;
	name ntpnLOAD652C;
	parent ntpmLOAD652C;
	longitude 1550.14659147;
	nominal_voltage 120;
	latitude -1224.22209174;
};

object triplex_node {
	phases AS;
	power_12 160000.000+110000.000j;
	name ntpnLOAD634A;
	parent ntpmLOAD634A;
	longitude 752.019226533;
	nominal_voltage 120;
	latitude 2403.77799638;
};

object triplex_node {
	phases CS;
	power_12 170000.000+80000.000j;
	name ntpnLOAD611C;
	parent ntpmLOAD611C;
	longitude 1300.61082415;
	nominal_voltage 120;
	latitude -2388.46838293;
};

object triplex_node {
	phases BS;
	power_12 120000.000+90000.000j;
	name ntpnLOAD634B;
	parent ntpmLOAD634B;
	longitude 745.411275793;
	nominal_voltage 120;
	latitude 2404.67967652;
};

object triplex_node {
	phases AS;
	power_12 0.000+0.000j;
	name ntpnLOAD645A;
	parent ntpmLOAD645A;
	longitude 743.478934166;
	nominal_voltage 120;
	latitude -1214.97863412;
};

object triplex_node {
	phases BS;
	power_12 170000.000+125000.000j;
	name ntpnLOAD645B;
	parent ntpmLOAD645B;
	longitude 744.866807158;
	nominal_voltage 120;
	latitude -1218.27700951;
};

object triplex_node {
	phases CS;
	power_12 0.000+0.000j;
	name ntpnLOAD645C;
	parent ntpmLOAD645C;
	longitude 748.241685358;
	nominal_voltage 120;
	latitude -1223.5535294;
};

object triplex_node {
	phases CS;
	power_12 290000.000+212000.000j;
	name ntpnLOAD675C;
	parent ntpmLOAD675C;
	longitude 1312.19760912;
	nominal_voltage 120;
	latitude 1685.56825426;
};

object triplex_node {
	phases CS;
	power_12 120000.000+90000.000j;
	name ntpnLOAD634C;
	parent ntpmLOAD634C;
	longitude 744.563908597;
	nominal_voltage 120;
	latitude 2400.29696614;
};

object triplex_node {
	phases AS;
	power_12 485000.000+190000.000j;
	name ntpnLOAD675A;
	parent ntpmLOAD675A;
	longitude 1305.24412722;
	nominal_voltage 120;
	latitude 1687.69146309;
};

object overhead_line {
	phases A;
	from nx684;
	name L684_652;
	to nx652;
	length 800.000000;
	configuration LINE607;
};

object overhead_line {
	phases ACN;
	from nx671;
	name L671_684;
	to nx684;
	length 300.000000;
	configuration olc4;
};

object overhead_line {
	phases ABCN;
	from nx671;
	name L671_680;
	to nx680;
	length 1000.000000;
	configuration olc2;
};

object overhead_line {
	phases BCN;
	from nx632;
	name L632_645;
	to nx645;
	length 500.000000;
	configuration olc1;
};

object overhead_line {
	phases ABC;
	from nx692;
	name L692_675;
	to nx675;
	length 500.000000;
	configuration LINE606;
};

object overhead_line {
	phases ABCN;
	from nx632;
	name L632_671;
	to nx671;
	length 2000.000656;
	configuration olc2;
};

object overhead_line {
	phases ABCN;
	from nx632;
	name L632_633;
	to nx633;
	length 500.000000;
	configuration olc0;
};

object overhead_line {
	phases BCN;
	from nx645;
	name L645_646;
	to nx646;
	length 300.000000;
	configuration olc3;
};

object overhead_line {
	phases CN;
	from nx684;
	name L684_611;
	to nx611;
	length 300.000007;
	configuration olc5;
};

object overhead_line {
	phases ABCN;
	from nRG60;
	name L650_632;
	to nx632;
	length 2000.000656;
	configuration olc2;
};

object transformer {
	phases ABC;
	from nx633;
	name L633_634_XFM_1;
	to nx634;
	configuration XFM1_XFO;
};

object transformer {
	phases AS;
	from nx652;
	name SPCTLOAD652A;
	to ntpmLOAD652A;
	configuration SPCTconfigLOAD652A;
};

object transformer {
	phases CS;
	from nx652;
	name SPCTLOAD652C;
	to ntpmLOAD652C;
	configuration SPCTconfigLOAD652C;
};

object transformer {
	phases BS;
	from nx652;
	name SPCTLOAD652B;
	to ntpmLOAD652B;
	configuration SPCTconfigLOAD652B;
};

object transformer {
	phases AS;
	from nx646;
	name SPCTLOAD646A;
	to ntpmLOAD646A;
	configuration SPCTconfigLOAD646A;
};

object transformer {
	phases BS;
	from nx646;
	name SPCTLOAD646B;
	to ntpmLOAD646B;
	configuration SPCTconfigLOAD646B;
};

object transformer {
	phases CS;
	from nx646;
	name SPCTLOAD646C;
	to ntpmLOAD646C;
	configuration SPCTconfigLOAD646C;
};

object transformer {
	phases BS;
	from nx675;
	name SPCTLOAD675B;
	to ntpmLOAD675B;
	configuration SPCTconfigLOAD675B;
};

object transformer {
	phases CS;
	from nx675;
	name SPCTLOAD675C;
	to ntpmLOAD675C;
	configuration SPCTconfigLOAD675C;
};

object transformer {
	phases AS;
	from nx675;
	name SPCTLOAD675A;
	to ntpmLOAD675A;
	configuration SPCTconfigLOAD675A;
};

object transformer {
	phases AS;
	from nx611;
	name SPCTLOAD611A;
	to ntpmLOAD611A;
	configuration SPCTconfigLOAD611A;
};

object transformer {
	phases BS;
	from nx611;
	name SPCTLOAD611B;
	to ntpmLOAD611B;
	configuration SPCTconfigLOAD611B;
};

object transformer {
	phases CS;
	from nx611;
	name SPCTLOAD611C;
	to ntpmLOAD611C;
	configuration SPCTconfigLOAD611C;
};

object transformer {
	phases AS;
	from nx634;
	name SPCTLOAD634A;
	to ntpmLOAD634A;
	configuration SPCTconfigLOAD634A;
};

object transformer {
	phases CS;
	from nx634;
	name SPCTLOAD634C;
	to ntpmLOAD634C;
	configuration SPCTconfigLOAD634C;
};

object transformer {
	phases BS;
	from nx634;
	name SPCTLOAD634B;
	to ntpmLOAD634B;
	configuration SPCTconfigLOAD634B;
};

object transformer {
	phases BS;
	from nx671;
	name SPCTLOAD671B;
	to ntpmLOAD671B;
	configuration SPCTconfigLOAD671B;
};

object transformer {
	phases CS;
	from nx671;
	name SPCTLOAD671C;
	to ntpmLOAD671C;
	configuration SPCTconfigLOAD671C;
};

object transformer {
	phases AS;
	from nx671;
	name SPCTLOAD671A;
	to ntpmLOAD671A;
	configuration SPCTconfigLOAD671A;
};

object transformer {
	phases AS;
	from nx645;
	name SPCTLOAD645A;
	to ntpmLOAD645A;
	configuration SPCTconfigLOAD645A;
};

object transformer {
	phases CS;
	from nx645;
	name SPCTLOAD645C;
	to ntpmLOAD645C;
	configuration SPCTconfigLOAD645C;
};

object transformer {
	phases BS;
	from nx645;
	name SPCTLOAD645B;
	to ntpmLOAD645B;
	configuration SPCTconfigLOAD645B;
};

object transformer {
	phases AS;
	from nx692;
	name SPCTLOAD692A;
	to ntpmLOAD692A;
	configuration SPCTconfigLOAD692A;
};

object transformer {
	phases CS;
	from nx692;
	name SPCTLOAD692C;
	to ntpmLOAD692C;
	configuration SPCTconfigLOAD692C;
};

object transformer {
	phases BS;
	from nx692;
	name SPCTLOAD692B;
	to ntpmLOAD692B;
	configuration SPCTconfigLOAD692B;
};

object regulator {
	phases ABC;
	from nx7;
	name x650REG;
	to nRG60;
	configuration REG650_632_x650REG;
};

object switch {
	phase_B_state CLOSED;
	phases ABC;
	from nx671;
	name L671_692_SW_1;
	phase_C_state CLOSED;
	to nx692;
	phase_A_state CLOSED;
	operating_mode BANKED;
};

object switch {
	phase_B_state CLOSED;
	phases ABC;
	from nx650;
	name x296;
	phase_C_state CLOSED;
	to nx7;
	phase_A_state CLOSED;
	operating_mode BANKED;
};

object capacitor {
	control MANUAL;
	dwell_time 3;
	capacitor_A 200000.0;
	name L675CAP;
	parent nx675;
	capacitor_B 200000.0;
	capacitor_C 200000.0;
	phases ABC;
	longitude 1302.04557457;
	time_delay 2;
	latitude 1690.67305345;
	nominal_voltage 2401.78;
	switchC CLOSED;
	switchB CLOSED;
	switchA CLOSED;
	phases_connected ABCN;
};

object capacitor {
	control MANUAL;
	dwell_time 3;
	name L611CAP;
	parent nx611;
	capacitor_C 100000.0;
	phases C;
	longitude 1304.11545076;
	time_delay 2;
	latitude -2386.81867721;
	nominal_voltage 2401.78;
	switchC CLOSED;
	phases_connected CN;
};

object node {
	phases ABC;
	nominal_voltage 2401.77711983;
	name sourcenode;
	bustype SWING;
};

object regulator {
	phases ABC;
	from sourcenode;
	name sourceregulator;
	to nx650;
	configuration ss_regconfiguration;
};

object regulator_configuration {
	dwell_time 5;
	band_center 2401.77711983;
	connect_type WYE_WYE;
	control_level INDIVIDUAL;
	lower_taps 50;
	Control OUTPUT_VOLTAGE;
	raise_taps 50;
	name ss_regconfiguration;
	tap_pos_A 0;
	tap_pos_B 0;
	tap_pos_C 0;
	time_delay 30.0;
	regulation 0.1;
	band_width 2.0;
};

