clear
new object=circuit.240_node_test_system
edit object=vsource.source bus1=eq_source_bus.1.2.3 phases=3 angle=0.00000 pu=1.00000 basekv=69.00000 r1=4.5426 x1=10.527 r0=7.3655 x0=24.505
new object=linecode.oh_3p_type1 nphases=3 units=mi rmatrix=[0.61592700,0.17092700,0.17092700|0.17092700,0.61592700,0.17092700|0.17092700,0.17092700,0.61592700] xmatrix=[1.20938900,0.43318800,0.43318800|0.43318800,1.20938900,0.43318800|0.43318800,0.43318800,1.20938900]
new object=linecode.oh_2p_type2 nphases=2 units=mi rmatrix=[0.58925500,0.16949500|0.16949500,0.58925500] xmatrix=[1.07485600,0.38787600|0.38787600,1.07485600]
new object=linecode.oh_1p_type2 nphases=1 units=mi rmatrix=[0.59247300] xmatrix=[1.06582100]
new object=linecode.oh_3p_type5 nphases=3 units=mi rmatrix=[1.19160200,0.23484900,0.23484900|0.23484900,1.19160200,0.23484900|0.23484900,0.23484900,1.19160200] xmatrix=[1.20945200,0.48926300,0.48926300|0.48926300,1.20945200,0.48926300|0.48926300,0.48926300,1.20945200]
new object=linecode.oh_1p_type5 nphases=1 units=mi rmatrix=[1.19426000] xmatrix=[1.20542000]
new object=linecode.ug_3p_type1 nphases=3 units=mi rmatrix=[1.00942300,0.40973200,0.40973200|0.40973200,1.00942300,0.40973200|0.40973200,0.40973200,1.00942300] xmatrix=[0.49316400,0.10084900,0.10084900|0.10084900,0.49316400,0.10084900|0.10084900,0.10084900,0.49316400] cmatrix=[286.10159300,0.00000000,0.00000000|0.00000000,286.10159300,0.00000000|0.00000000,0.00000000,286.10159300]
new object=linecode.ug_3p_type2 nphases=3 units=mi rmatrix=[1.69257700,0.55008700,0.55008700|0.55008700,1.69257700,0.55008700|0.55008700,0.55008700,1.69257700] xmatrix=[0.79175600,0.34493100,0.34493100|0.34493100,0.79175600,0.34493100|0.34493100,0.34493100,0.79175600] cmatrix=[207.88053900,0.00000000,0.00000000|0.00000000,207.88053900,0.00000000|0.00000000,0.00000000,207.88053900]
new object=linecode.ug_1p_type2 nphases=1 units=mi rmatrix=[1.67533800] xmatrix=[1.21000700] cmatrix=[207.88053900]
new object=loadshape.default npts=24 interval=1 mult=[0.677,0.6256,0.6087,0.5833,0.58028,0.6025,0.657,0.7477,0.832,0.88,0.94,0.989,0.985,0.98,0.9898,0.999,1,0.958,0.936,0.913,0.876,0.876,0.828,0.756]
new object=growthshape.default npts=2 year=[1,20] mult=[1.025,1.025]
new object=tcc_curve.a npts=5 c_array=[1,2.5,4.5,8,14] t_array=[0.15,0.07,0.05,0.045,0.045]
new object=tcc_curve.d npts=5 c_array=[1,2.5,4.5,8,14] t_array=[6,0.7,0.2,0.06,0.02]
new object=tcc_curve.tlink npts=7 c_array=[2,2.1,3,4,6,22,50] t_array=[300,100,10.1,4,1.4,0.1,0.02]
new object=tcc_curve.klink npts=6 c_array=[2,2.2,3,4,6,30] t_array=[300,20,4,1.3,0.41,0.02]
new object=tcc_curve.uv1547 npts=2 c_array=[0.5,0.9] t_array=[0.166,2]
new object=tcc_curve.ov1547 npts=2 c_array=[1.1,1.2] t_array=[2,0.166]
new object=tcc_curve.mod_inv npts=15 c_array=[1.1,1.3,1.5,2,3,4,5,6,7,8,9,10,20,50,100] t_array=[27.1053,9.9029,6.439,3.8032,2.4322,1.9458,1.6883,1.5255,1.4117,1.3267,1.2604,1.2068,0.9481,0.7468,0.6478]
new object=tcc_curve.very_inv npts=15 c_array=[1.1,1.3,1.5,2,3,4,5,6,7,8,9,10,20,50,100] t_array=[93.872,28.9113,16.179,7.0277,2.9423,1.7983,1.3081,1.0513,0.8995,0.8023,0.7361,0.6891,0.5401,0.4988,0.493]
new object=tcc_curve.ext_inv npts=15 c_array=[1.1,1.3,1.5,2,3,4,5,6,7,8,9,10,20,50,100] t_array=[134.407,40.9913,22.6817,9.5217,3.6467,2.0017,1.2967,0.9274,0.7092,0.5693,0.4742,0.4065,0.1924,0.133,0.1245]
new object=tcc_curve.definite npts=3 c_array=[1,1.001,100] t_array=[300,1,1]
new object=spectrum.default numharm=7 harmonic=[1,3,5,7,9,11,13] %mag=[100,33,20,14,11,9,7] angle=[0,0,0,0,0,0,0]
new object=spectrum.defaultload numharm=7 harmonic=[1,3,5,7,9,11,13] %mag=[100,1.5,20,14,1,9,7] angle=[0,180,180,180,180,180,180]
new object=spectrum.defaultgen numharm=7 harmonic=[1,3,5,7,9,11,13] %mag=[100,5,3,1.5,1,0.7,0.5] angle=[0,0,0,0,0,0,0]
new object=spectrum.defaultvsource numharm=1 harmonic=[1] %mag=[100] angle=[0]
new object=spectrum.linear numharm=1 harmonic=[1] %mag=[100] angle=[0]
new object=spectrum.pwm6 numharm=13 harmonic=[1,3,5,7,9,11,13,15,17,19,21,23,25] %mag=[100,4.4,76.5,62.7,2.9,24.8,12.7,0.5,7.1,8.4,0.9,4.4,3.3] angle=[-103,-5,28,-180,-33,-59,79,36,-253,-124,3,-30,86]
new object=spectrum.dc6 numharm=10 harmonic=[1,3,5,7,9,11,13,15,17,19] %mag=[100,1.2,33.6,1.6,0.4,8.7,1.2,0.3,4.5,1.3] angle=[-75,28,156,29,-91,49,54,148,-57,-46]
new object=line.l_1001_1002 bus1=bus1001.1.2.3 bus2=bus1002.1.2.3 phases=3 length=2967 units=ft linecode=ug_3p_type1 seasons=1 ratings=[400] normamps=400 emergamps=600
new object=line.l_1002_1003 bus1=bus1002.1.2.3 bus2=bus1003.1.2.3 phases=3 length=372 units=ft linecode=ug_3p_type2 seasons=1 ratings=[400] normamps=400 emergamps=600
new object=line.l_1002_1004 bus1=bus1002.1.2.3 bus2=bus1004.1.2.3 phases=3 length=638 units=ft linecode=oh_3p_type1 seasons=1 ratings=[400] normamps=400 emergamps=600
new object=line.l_1004_1005 bus1=bus1004.1.2.3 bus2=bus1005.1.2.3 phases=3 length=394 units=ft linecode=oh_3p_type1 seasons=1 ratings=[400] normamps=400 emergamps=600
new object=line.l_1005_1006 bus1=bus1005.1.2.3 bus2=bus1006.1.2.3 phases=3 length=1049 units=ft linecode=oh_3p_type1 seasons=1 ratings=[400] normamps=400 emergamps=600
new object=line.l_1006_1007 bus1=bus1006.1.2 bus2=bus1007.1.2 phases=2 length=2000 units=ft linecode=oh_2p_type2 seasons=1 ratings=[400] normamps=400 emergamps=600
new object=line.l_1006_1008 bus1=bus1006.1.2.3 bus2=bus1008.1.2.3 phases=3 length=454 units=ft linecode=oh_3p_type1 seasons=1 ratings=[400] normamps=400 emergamps=600
new object=line.l_1008_1009 bus1=bus1008.1.2.3 bus2=bus1009.1.2.3 phases=3 length=1082 units=ft linecode=oh_3p_type1 seasons=1 ratings=[400] normamps=400 emergamps=600
new object=line.l_1009_1010 bus1=bus1009.1.2.3 bus2=bus1010.1.2.3 phases=3 length=169 units=ft linecode=oh_3p_type1 seasons=1 ratings=[400] normamps=400 emergamps=600
new object=line.l_1009_1011 bus1=bus1009.1.2.3 bus2=bus1011.1.2.3 phases=3 length=60 units=ft linecode=ug_3p_type2 seasons=1 ratings=[400] normamps=400 emergamps=600
new object=line.l_1011_1012 bus1=bus1011.1.2.3 bus2=bus1012.1.2.3 phases=3 length=60 units=ft linecode=ug_3p_type2 seasons=1 ratings=[400] normamps=400 emergamps=600
new object=line.l_1012_1013 bus1=bus1012.1.2.3 bus2=bus1013.1.2.3 phases=3 length=306 units=ft linecode=ug_3p_type2 seasons=1 ratings=[400] normamps=400 emergamps=600
new object=line.l_1013_1014 bus1=bus1013.2.0 bus2=bus1014.2.0 phases=1 length=208 units=ft linecode=ug_1p_type2 seasons=1 ratings=[400] normamps=400 emergamps=600
new object=line.l_1014_1015 bus1=bus1014.2.0 bus2=bus1015.2.0 phases=1 length=126 units=ft linecode=ug_1p_type2 seasons=1 ratings=[400] normamps=400 emergamps=600
new object=line.l_1013_1016 bus1=bus1013.3.0 bus2=bus1016.3.0 phases=1 length=468 units=ft linecode=ug_1p_type2 seasons=1 ratings=[400] normamps=400 emergamps=600
new object=line.l_1016_1017 bus1=bus1016.3.0 bus2=bus1017.3.0 phases=1 length=71 units=ft linecode=ug_1p_type2 seasons=1 ratings=[400] normamps=400 emergamps=600
new object=line.l_2001_2002 bus1=bus2001.1.2.3 bus2=bus2002.1.2.3 phases=3 length=1388 units=ft linecode=ug_3p_type1 seasons=1 ratings=[400] normamps=400 emergamps=600
new object=line.l_2002_2003 bus1=bus2002.1.2.3 bus2=bus2003.1.2.3 phases=3 length=1281 units=ft linecode=oh_3p_type1 seasons=1 ratings=[400] normamps=400 emergamps=600
new object=line.l_2003_2004 bus1=bus2003.1.2.3 bus2=bus2004.1.2.3 phases=3 length=798 units=ft linecode=oh_3p_type1 seasons=1 ratings=[400] normamps=400 emergamps=600
new object=line.l_2004_2005 bus1=bus2004.1.2.3 bus2=bus2005.1.2.3 phases=3 length=317 units=ft linecode=oh_3p_type1 seasons=1 ratings=[400] normamps=400 emergamps=600
new object=line.l_2005_2006 bus1=bus2005.1.2.3 bus2=bus2006.1.2.3 phases=3 length=145 units=ft linecode=oh_3p_type1 seasons=1 ratings=[400] normamps=400 emergamps=600
new object=line.l_2006_2007 bus1=bus2006.1 bus2=bus2007.1 phases=1 length=245 units=ft linecode=oh_1p_type5 seasons=1 ratings=[400] normamps=400 emergamps=600
new object=line.l_2007_2008 bus1=bus2007.1 bus2=bus2008.1 phases=1 length=125 units=ft linecode=ug_1p_type2 seasons=1 ratings=[400] normamps=400 emergamps=600
new object=line.l_2007_2009 bus1=bus2007.1 bus2=bus2009.1 phases=1 length=161 units=ft linecode=oh_1p_type2 seasons=1 ratings=[400] normamps=400 emergamps=600
new object=line.l_2006_2010 bus1=bus2006.1.2.3 bus2=bus2010.1.2.3 phases=3 length=170 units=ft linecode=oh_3p_type1 seasons=1 ratings=[400] normamps=400 emergamps=600
new object=line.l_2010_2011 bus1=bus2010.1.2.3 bus2=bus2011.1.2.3 phases=3 length=275 units=ft linecode=oh_3p_type1 seasons=1 ratings=[400] normamps=400 emergamps=600
new object=line.l_2011_2012 bus1=bus2011.1.2.3 bus2=bus2012.1.2.3 phases=3 length=503 units=ft linecode=oh_3p_type1 seasons=1 ratings=[400] normamps=400 emergamps=600
new object=line.l_2013_2014 bus1=bus2013.1.2.3 bus2=bus2014.1.2.3 phases=3 length=268 units=ft linecode=oh_3p_type1 seasons=1 ratings=[400] normamps=400 emergamps=600
new object=line.l_2014_2015 bus1=bus2014.2 bus2=bus2015.2 phases=1 length=120 units=ft linecode=ug_1p_type2 seasons=1 ratings=[400] normamps=400 emergamps=600
new object=line.l_2014_2016 bus1=bus2014.1.2.3 bus2=bus2016.1.2.3 phases=3 length=257 units=ft linecode=oh_3p_type1 seasons=1 ratings=[400] normamps=400 emergamps=600
new object=line.l_2016_2017 bus1=bus2016.1.2.3 bus2=bus2017.1.2.3 phases=3 length=174 units=ft linecode=ug_3p_type2 seasons=1 ratings=[400] normamps=400 emergamps=600
new object=line.l_2017_2018 bus1=bus2017.1.2.3 bus2=bus2018.1.2.3 phases=3 length=447 units=ft linecode=ug_3p_type2 seasons=1 ratings=[400] normamps=400 emergamps=600
new object=line.l_2013_2019 bus1=bus2013.1.2.3 bus2=bus2019.1.2.3 phases=3 length=45 units=ft linecode=oh_3p_type1 seasons=1 ratings=[400] normamps=400 emergamps=600
new object=line.l_2019_2020 bus1=bus2019.2 bus2=bus2020.2 phases=1 length=642 units=ft linecode=ug_1p_type2 seasons=1 ratings=[400] normamps=400 emergamps=600
new object=line.l_2019_2021 bus1=bus2019.1.2.3 bus2=bus2021.1.2.3 phases=3 length=43 units=ft linecode=oh_3p_type1 seasons=1 ratings=[400] normamps=400 emergamps=600
new object=line.l_2021_2022 bus1=bus2021.3 bus2=bus2022.3 phases=1 length=205 units=ft linecode=ug_1p_type2 seasons=1 ratings=[400] normamps=400 emergamps=600
new object=line.l_2022_2023 bus1=bus2022.3 bus2=bus2023.3 phases=1 length=150 units=ft linecode=ug_1p_type2 seasons=1 ratings=[400] normamps=400 emergamps=600
new object=line.l_2023_2024 bus1=bus2023.3 bus2=bus2024.3 phases=1 length=408 units=ft linecode=ug_1p_type2 seasons=1 ratings=[400] normamps=400 emergamps=600
new object=line.l_2024_2025 bus1=bus2024.3 bus2=bus2025.3 phases=1 length=331 units=ft linecode=ug_1p_type2 seasons=1 ratings=[400] normamps=400 emergamps=600
new object=line.l_2026_2027 bus1=bus2026.1.2.3 bus2=bus2027.1.2.3 phases=3 length=369 units=ft linecode=oh_3p_type1 seasons=1 ratings=[400] normamps=400 emergamps=600
new object=line.l_2027_2028 bus1=bus2027.1.2.3 bus2=bus2028.1.2.3 phases=3 length=285 units=ft linecode=ug_3p_type2 seasons=1 ratings=[400] normamps=400 emergamps=600
new object=line.l_2028_2029 bus1=bus2028.1.2.3 bus2=bus2029.1.2.3 phases=3 length=131 units=ft linecode=ug_3p_type2 seasons=1 ratings=[400] normamps=400 emergamps=600
new object=line.l_2029_2030 bus1=bus2029.1.2.3 bus2=bus2030.1.2.3 phases=3 length=165 units=ft linecode=ug_3p_type2 seasons=1 ratings=[400] normamps=400 emergamps=600
new object=line.l_2030_2031 bus1=bus2030.1.2.3 bus2=bus2031.1.2.3 phases=3 length=245 units=ft linecode=ug_3p_type2 seasons=1 ratings=[400] normamps=400 emergamps=600
new object=line.l_2027_2032 bus1=bus2027.1.2.3 bus2=bus2032.1.2.3 phases=3 length=149 units=ft linecode=oh_3p_type1 seasons=1 ratings=[400] normamps=400 emergamps=600
new object=line.l_2032_2033 bus1=bus2032.1.2.3 bus2=bus2033.1.2.3 phases=3 length=289 units=ft linecode=oh_3p_type1 seasons=1 ratings=[400] normamps=400 emergamps=600
new object=line.l_2033_2034 bus1=bus2033.1.2.3 bus2=bus2034.1.2.3 phases=3 length=185 units=ft linecode=oh_3p_type5 seasons=1 ratings=[400] normamps=400 emergamps=600
new object=line.l_2033_2035 bus1=bus2033.1.2.3 bus2=bus2035.1.2.3 phases=3 length=160 units=ft linecode=oh_3p_type1 seasons=1 ratings=[400] normamps=400 emergamps=600
new object=line.l_2035_2036 bus1=bus2035.1.2.3 bus2=bus2036.1.2.3 phases=3 length=160 units=ft linecode=oh_3p_type1 seasons=1 ratings=[400] normamps=400 emergamps=600
new object=line.l_2036_2037 bus1=bus2036.1.2.3 bus2=bus2037.1.2.3 phases=3 length=80 units=ft linecode=oh_3p_type1 seasons=1 ratings=[400] normamps=400 emergamps=600
new object=line.l_2037_2038 bus1=bus2037.1.2.3 bus2=bus2038.1.2.3 phases=3 length=192 units=ft linecode=oh_3p_type1 seasons=1 ratings=[400] normamps=400 emergamps=600
new object=line.l_2038_2039 bus1=bus2038.1.2.3 bus2=bus2039.1.2.3 phases=3 length=800 units=ft linecode=oh_3p_type1 seasons=1 ratings=[400] normamps=400 emergamps=600
new object=line.l_2039_2040 bus1=bus2039.1.2.3 bus2=bus2040.1.2.3 phases=3 length=309 units=ft linecode=oh_3p_type1 seasons=1 ratings=[400] normamps=400 emergamps=600
new object=line.l_2040_2041 bus1=bus2040.1.2.3 bus2=bus2041.1.2.3 phases=3 length=383 units=ft linecode=oh_3p_type1 seasons=1 ratings=[400] normamps=400 emergamps=600
new object=line.l_2039_2042 bus1=bus2039.1.2.3 bus2=bus2042.1.2.3 phases=3 length=35 units=ft linecode=ug_3p_type2 seasons=1 ratings=[400] normamps=400 emergamps=600
new object=line.l_2042_2043 bus1=bus2042.1.2.3 bus2=bus2043.1.2.3 phases=3 length=158 units=ft linecode=ug_3p_type2 seasons=1 ratings=[400] normamps=400 emergamps=600
new object=line.l_2043_2044 bus1=bus2043.1.2.3 bus2=bus2044.1.2.3 phases=3 length=342 units=ft linecode=ug_3p_type2 seasons=1 ratings=[400] normamps=400 emergamps=600
new object=line.l_2044_2045 bus1=bus2044.2 bus2=bus2045.2 phases=1 length=323 units=ft linecode=ug_1p_type2 seasons=1 ratings=[400] normamps=400 emergamps=600
new object=line.l_2045_2046 bus1=bus2045.2 bus2=bus2046.2 phases=1 length=330 units=ft linecode=ug_1p_type2 seasons=1 ratings=[400] normamps=400 emergamps=600
new object=line.l_2045_2047 bus1=bus2045.2 bus2=bus2047.2 phases=1 length=189 units=ft linecode=ug_1p_type2 seasons=1 ratings=[400] normamps=400 emergamps=600
new object=line.l_2047_2048 bus1=bus2047.2 bus2=bus2048.2 phases=1 length=259 units=ft linecode=ug_1p_type2 seasons=1 ratings=[400] normamps=400 emergamps=600
new object=line.l_2044_2049 bus1=bus2044.1.2.3 bus2=bus2049.1.2.3 phases=3 length=130 units=ft linecode=ug_3p_type2 seasons=1 ratings=[400] normamps=400 emergamps=600
new object=line.l_2049_2050 bus1=bus2049.1.2.3 bus2=bus2050.1.2.3 phases=3 length=124 units=ft linecode=ug_3p_type2 seasons=1 ratings=[400] normamps=400 emergamps=600
new object=line.l_2050_2051 bus1=bus2050.1.2.3 bus2=bus2051.1.2.3 phases=3 length=139 units=ft linecode=ug_3p_type2 seasons=1 ratings=[400] normamps=400 emergamps=600
new object=line.l_2051_2052 bus1=bus2051.1.2.3 bus2=bus2052.1.2.3 phases=3 length=134 units=ft linecode=ug_3p_type2 seasons=1 ratings=[400] normamps=400 emergamps=600
new object=line.l_2044_2053 bus1=bus2044.1.2.3 bus2=bus2053.1.2.3 phases=3 length=464 units=ft linecode=ug_3p_type2 seasons=1 ratings=[400] normamps=400 emergamps=600
new object=line.l_2053_2054 bus1=bus2053.1.2.3 bus2=bus2054.1.2.3 phases=3 length=139 units=ft linecode=ug_3p_type2 seasons=1 ratings=[400] normamps=400 emergamps=600
new object=line.l_2054_2055 bus1=bus2054.1.2.3 bus2=bus2055.1.2.3 phases=3 length=156 units=ft linecode=ug_3p_type2 seasons=1 ratings=[400] normamps=400 emergamps=600
new object=line.l_2055_2056 bus1=bus2055.1.2.3 bus2=bus2056.1.2.3 phases=3 length=204 units=ft linecode=ug_3p_type2 seasons=1 ratings=[400] normamps=400 emergamps=600
new object=line.l_2053_2057 bus1=bus2053.1.2.3 bus2=bus2057.1.2.3 phases=3 length=761 units=ft linecode=ug_3p_type2 seasons=1 ratings=[400] normamps=400 emergamps=600
new object=line.l_2057_2058 bus1=bus2057.1.2.3 bus2=bus2058.1.2.3 phases=3 length=407 units=ft linecode=ug_3p_type2 seasons=1 ratings=[400] normamps=400 emergamps=600
new object=line.l_2057_2059 bus1=bus2057.1.2.3 bus2=bus2059.1.2.3 phases=3 length=685 units=ft linecode=ug_3p_type2 seasons=1 ratings=[400] normamps=400 emergamps=600
new object=line.l_2059_2060 bus1=bus2059.1.2.3 bus2=bus2060.1.2.3 phases=3 length=304 units=ft linecode=ug_3p_type2 seasons=1 ratings=[400] normamps=400 emergamps=600
new object=line.l_3001_3003 bus1=bus3001.1.2.3 bus2=bus3003.1.2.3 phases=3 length=2307 units=ft linecode=ug_3p_type1 seasons=1 ratings=[400] normamps=400 emergamps=600
new object=line.l_3003_3002 bus1=bus3003.1.2.3 bus2=bus3002.1.2.3 phases=3 length=85 units=ft linecode=ug_3p_type2 seasons=1 ratings=[400] normamps=400 emergamps=600
new object=line.l_3003_3004 bus1=bus3003.1.2.3 bus2=bus3004.1.2.3 phases=3 length=81 units=ft linecode=ug_3p_type2 seasons=1 ratings=[400] normamps=400 emergamps=600
new object=line.l_3003_3005 bus1=bus3003.1.2.3 bus2=bus3005.1.2.3 phases=3 length=1997 units=ft linecode=ug_3p_type1 seasons=1 ratings=[400] normamps=400 emergamps=600
new object=line.l_3005_3006 bus1=bus3005.1.2.3 bus2=bus3006.1.2.3 phases=3 length=311 units=ft linecode=oh_3p_type1 seasons=1 ratings=[400] normamps=400 emergamps=600
new object=line.l_3006_3007 bus1=bus3006.1.2.3 bus2=bus3007.1.2.3 phases=3 length=370 units=ft linecode=oh_3p_type1 seasons=1 ratings=[400] normamps=400 emergamps=600
new object=line.l_3005_3008 bus1=bus3005.1.2.3 bus2=bus3008.1.2.3 phases=3 length=136 units=ft linecode=oh_3p_type1 seasons=1 ratings=[400] normamps=400 emergamps=600
new object=line.l_3008_3009 bus1=bus3008.1 bus2=bus3009.1 phases=1 length=161 units=ft linecode=oh_1p_type5 seasons=1 ratings=[400] normamps=400 emergamps=600
new object=line.l_3009_3010 bus1=bus3009.1 bus2=bus3010.1 phases=1 length=347 units=ft linecode=oh_1p_type5 seasons=1 ratings=[400] normamps=400 emergamps=600
new object=line.l_3010_3011 bus1=bus3010.1 bus2=bus3011.1 phases=1 length=265 units=ft linecode=oh_1p_type5 seasons=1 ratings=[400] normamps=400 emergamps=600
new object=line.l_3011_3012 bus1=bus3011.1 bus2=bus3012.1 phases=1 length=312 units=ft linecode=oh_1p_type5 seasons=1 ratings=[400] normamps=400 emergamps=600
new object=line.l_3008_3013 bus1=bus3008.2 bus2=bus3013.2 phases=1 length=170 units=ft linecode=oh_1p_type5 seasons=1 ratings=[400] normamps=400 emergamps=600
new object=line.l_3013_3014 bus1=bus3013.2 bus2=bus3014.2 phases=1 length=295 units=ft linecode=oh_1p_type5 seasons=1 ratings=[400] normamps=400 emergamps=600
new object=line.l_3008_3015 bus1=bus3008.1.2.3 bus2=bus3015.1.2.3 phases=3 length=322 units=ft linecode=oh_3p_type1 seasons=1 ratings=[400] normamps=400 emergamps=600
new object=line.l_3015_3016 bus1=bus3015.2 bus2=bus3016.2 phases=1 length=210 units=ft linecode=oh_1p_type5 seasons=1 ratings=[400] normamps=400 emergamps=600
new object=line.l_3016_3017 bus1=bus3016.2 bus2=bus3017.2 phases=1 length=259 units=ft linecode=oh_1p_type5 seasons=1 ratings=[400] normamps=400 emergamps=600
new object=line.l_3015_3018 bus1=bus3015.3 bus2=bus3018.3 phases=1 length=181 units=ft linecode=oh_1p_type5 seasons=1 ratings=[400] normamps=400 emergamps=600
new object=line.l_3018_3019 bus1=bus3018.3 bus2=bus3019.3 phases=1 length=281 units=ft linecode=oh_1p_type5 seasons=1 ratings=[400] normamps=400 emergamps=600
new object=line.l_3019_3020 bus1=bus3019.3 bus2=bus3020.3 phases=1 length=307 units=ft linecode=oh_1p_type5 seasons=1 ratings=[400] normamps=400 emergamps=600
new object=line.l_3020_3021 bus1=bus3020.3 bus2=bus3021.3 phases=1 length=303 units=ft linecode=oh_1p_type5 seasons=1 ratings=[400] normamps=400 emergamps=600
new object=line.l_3015_3022 bus1=bus3015.1.2.3 bus2=bus3022.1.2.3 phases=3 length=289 units=ft linecode=oh_3p_type1 seasons=1 ratings=[400] normamps=400 emergamps=600
new object=line.l_3022_3023 bus1=bus3022.1 bus2=bus3023.1 phases=1 length=181 units=ft linecode=oh_1p_type5 seasons=1 ratings=[400] normamps=400 emergamps=600
new object=line.l_3023_3024 bus1=bus3023.1 bus2=bus3024.1 phases=1 length=320 units=ft linecode=oh_1p_type5 seasons=1 ratings=[400] normamps=400 emergamps=600
new object=line.l_3024_3025 bus1=bus3024.1 bus2=bus3025.1 phases=1 length=331 units=ft linecode=oh_1p_type5 seasons=1 ratings=[400] normamps=400 emergamps=600
new object=line.l_3022_3026 bus1=bus3022.1 bus2=bus3026.1 phases=1 length=164 units=ft linecode=oh_1p_type5 seasons=1 ratings=[400] normamps=400 emergamps=600
new object=line.l_3026_3027 bus1=bus3026.1 bus2=bus3027.1 phases=1 length=368 units=ft linecode=oh_1p_type5 seasons=1 ratings=[400] normamps=400 emergamps=600
new object=line.l_3027_3028 bus1=bus3027.1 bus2=bus3028.1 phases=1 length=241 units=ft linecode=oh_1p_type5 seasons=1 ratings=[400] normamps=400 emergamps=600
new object=line.l_3028_3029 bus1=bus3028.1 bus2=bus3029.1 phases=1 length=317 units=ft linecode=oh_1p_type5 seasons=1 ratings=[400] normamps=400 emergamps=600
new object=line.l_3022_3030 bus1=bus3022.1.2.3 bus2=bus3030.1.2.3 phases=3 length=304 units=ft linecode=oh_3p_type1 seasons=1 ratings=[400] normamps=400 emergamps=600
new object=line.l_3030_3035 bus1=bus3030.1.2.3 bus2=bus3035.1.2.3 phases=3 length=103 units=ft linecode=oh_3p_type1 seasons=1 ratings=[400] normamps=400 emergamps=600
new object=line.l_3035_3036 bus1=bus3035.1.2.3 bus2=bus3036.1.2.3 phases=3 length=271 units=ft linecode=oh_3p_type1 seasons=1 ratings=[400] normamps=400 emergamps=600
new object=line.l_3036_3037 bus1=bus3036.1.2.3 bus2=bus3037.1.2.3 phases=3 length=136 units=ft linecode=oh_3p_type1 seasons=1 ratings=[400] normamps=400 emergamps=600
new object=line.l_3037_3038 bus1=bus3037.1.2.3 bus2=bus3038.1.2.3 phases=3 length=252 units=ft linecode=oh_3p_type1 seasons=1 ratings=[400] normamps=400 emergamps=600
new object=line.l_3038_3039 bus1=bus3038.1.2.3 bus2=bus3039.1.2.3 phases=3 length=235 units=ft linecode=oh_3p_type1 seasons=1 ratings=[400] normamps=400 emergamps=600
new object=line.l_3039_3053 bus1=bus3039.1.2.3 bus2=bus3053.1.2.3 phases=3 length=263 units=ft linecode=oh_3p_type1 seasons=1 ratings=[400] normamps=400 emergamps=600
new object=line.l_3053_3054 bus1=bus3053.1.2.3 bus2=bus3054.1.2.3 phases=3 length=280 units=ft linecode=ug_3p_type2 seasons=1 ratings=[400] normamps=400 emergamps=600
new object=line.l_3053_3055 bus1=bus3053.2 bus2=bus3055.2 phases=1 length=1335 units=ft linecode=ug_1p_type2 seasons=1 ratings=[400] normamps=400 emergamps=600
new object=line.l_3055_3056 bus1=bus3055.2 bus2=bus3056.2 phases=1 length=128 units=ft linecode=ug_1p_type2 seasons=1 ratings=[400] normamps=400 emergamps=600
new object=line.l_3056_3057 bus1=bus3056.2 bus2=bus3057.2 phases=1 length=178 units=ft linecode=ug_1p_type2 seasons=1 ratings=[400] normamps=400 emergamps=600
new object=line.l_3057_3058 bus1=bus3057.2 bus2=bus3058.2 phases=1 length=178 units=ft linecode=ug_1p_type2 seasons=1 ratings=[400] normamps=400 emergamps=600
new object=line.l_3058_3059 bus1=bus3058.2 bus2=bus3059.2 phases=1 length=274 units=ft linecode=ug_1p_type2 seasons=1 ratings=[400] normamps=400 emergamps=600
new object=line.l_3059_3060 bus1=bus3059.2 bus2=bus3060.2 phases=1 length=77 units=ft linecode=ug_1p_type2 seasons=1 ratings=[400] normamps=400 emergamps=600
new object=line.l_3060_3061 bus1=bus3060.2 bus2=bus3061.2 phases=1 length=184 units=ft linecode=ug_1p_type2 seasons=1 ratings=[400] normamps=400 emergamps=600
new object=line.l_3055_3062 bus1=bus3055.2 bus2=bus3062.2 phases=1 length=443 units=ft linecode=ug_1p_type2 seasons=1 ratings=[400] normamps=400 emergamps=600
new object=line.l_3062_3063 bus1=bus3062.2 bus2=bus3063.2 phases=1 length=198 units=ft linecode=ug_1p_type2 seasons=1 ratings=[400] normamps=400 emergamps=600
new object=line.l_3063_3064 bus1=bus3063.2 bus2=bus3064.2 phases=1 length=157 units=ft linecode=ug_1p_type2 seasons=1 ratings=[400] normamps=400 emergamps=600
new object=line.l_3064_3065 bus1=bus3064.2 bus2=bus3065.2 phases=1 length=205 units=ft linecode=ug_1p_type2 seasons=1 ratings=[400] normamps=400 emergamps=600
new object=line.l_3065_3066 bus1=bus3065.2 bus2=bus3066.2 phases=1 length=123 units=ft linecode=ug_1p_type2 seasons=1 ratings=[400] normamps=400 emergamps=600
new object=line.l_3066_3067 bus1=bus3066.2 bus2=bus3067.2 phases=1 length=274 units=ft linecode=ug_1p_type2 seasons=1 ratings=[400] normamps=400 emergamps=600
new object=line.l_3030_3040 bus1=bus3030.1.2.3 bus2=bus3040.1.2.3 phases=3 length=332 units=ft linecode=oh_3p_type1 seasons=1 ratings=[400] normamps=400 emergamps=600
new object=line.l_3040_3044 bus1=bus3040.3 bus2=bus3044.3 phases=1 length=144 units=ft linecode=oh_1p_type5 seasons=1 ratings=[400] normamps=400 emergamps=600
new object=line.l_3044_3045 bus1=bus3044.3 bus2=bus3045.3 phases=1 length=393 units=ft linecode=oh_1p_type5 seasons=1 ratings=[400] normamps=400 emergamps=600
new object=line.l_3040_3041 bus1=bus3040.3 bus2=bus3041.3 phases=1 length=121 units=ft linecode=oh_1p_type5 seasons=1 ratings=[400] normamps=400 emergamps=600
new object=line.l_3041_3042 bus1=bus3041.3 bus2=bus3042.3 phases=1 length=328 units=ft linecode=oh_1p_type5 seasons=1 ratings=[400] normamps=400 emergamps=600
new object=line.l_3042_3043 bus1=bus3042.3 bus2=bus3043.3 phases=1 length=418 units=ft linecode=oh_1p_type5 seasons=1 ratings=[400] normamps=400 emergamps=600
new object=line.l_3040_3046 bus1=bus3040.1.2.3 bus2=bus3046.1.2.3 phases=3 length=329 units=ft linecode=oh_3p_type1 seasons=1 ratings=[400] normamps=400 emergamps=600
new object=line.l_3046_3047 bus1=bus3046.1.2.3 bus2=bus3047.1.2.3 phases=3 length=219 units=ft linecode=oh_3p_type1 seasons=1 ratings=[400] normamps=400 emergamps=600
new object=line.l_3046_3048 bus1=bus3046.1.2.3 bus2=bus3048.1.2.3 phases=3 length=130 units=ft linecode=oh_3p_type1 seasons=1 ratings=[400] normamps=400 emergamps=600
new object=line.l_3048_3049 bus1=bus3048.1.2.3 bus2=bus3049.1.2.3 phases=3 length=226 units=ft linecode=oh_3p_type1 seasons=1 ratings=[400] normamps=400 emergamps=600
new object=line.l_3049_3050 bus1=bus3049.1.2.3 bus2=bus3050.1.2.3 phases=3 length=167 units=ft linecode=oh_3p_type1 seasons=1 ratings=[400] normamps=400 emergamps=600
new object=line.l_3050_3051 bus1=bus3050.1.2.3 bus2=bus3051.1.2.3 phases=3 length=360 units=ft linecode=oh_3p_type1 seasons=1 ratings=[400] normamps=400 emergamps=600
new object=line.l_3051_3052 bus1=bus3051.1.2.3 bus2=bus3052.1.2.3 phases=3 length=292 units=ft linecode=oh_3p_type1 seasons=1 ratings=[400] normamps=400 emergamps=600
new object=line.l_3030_3031 bus1=bus3030.1.2.3 bus2=bus3031.1.2.3 phases=3 length=243 units=ft linecode=oh_3p_type1 seasons=1 ratings=[400] normamps=400 emergamps=600
new object=line.l_3031_3032 bus1=bus3031.1.2.3 bus2=bus3032.1.2.3 phases=3 length=251 units=ft linecode=oh_3p_type1 seasons=1 ratings=[400] normamps=400 emergamps=600
new object=line.l_3032_3033 bus1=bus3032.1.2.3 bus2=bus3033.1.2.3 phases=3 length=388 units=ft linecode=oh_3p_type1 seasons=1 ratings=[400] normamps=400 emergamps=600
new object=line.l_3033_3034 bus1=bus3033.1.2.3 bus2=bus3034.1.2.3 phases=3 length=257 units=ft linecode=oh_3p_type1 seasons=1 ratings=[400] normamps=400 emergamps=600
new object=line.l_3034_3068 bus1=bus3034.1.2.3 bus2=bus3068.1.2.3 phases=3 length=164 units=ft linecode=oh_3p_type1 seasons=1 ratings=[400] normamps=400 emergamps=600
new object=line.l_3068_3069 bus1=bus3068.1.2.3 bus2=bus3069.1.2.3 phases=3 length=329 units=ft linecode=oh_3p_type1 seasons=1 ratings=[400] normamps=400 emergamps=600
new object=line.l_3069_3070 bus1=bus3069.1.2.3 bus2=bus3070.1.2.3 phases=3 length=107 units=ft linecode=ug_3p_type2 seasons=1 ratings=[400] normamps=400 emergamps=600
new object=line.l_3070_3071 bus1=bus3070.1.2.3 bus2=bus3071.1.2.3 phases=3 length=141 units=ft linecode=ug_3p_type2 seasons=1 ratings=[400] normamps=400 emergamps=600
new object=line.l_3071_3072 bus1=bus3071.1.2.3 bus2=bus3072.1.2.3 phases=3 length=90 units=ft linecode=ug_3p_type2 seasons=1 ratings=[400] normamps=400 emergamps=600
new object=line.l_3069_3073 bus1=bus3069.1.2.3 bus2=bus3073.1.2.3 phases=3 length=20 units=ft linecode=oh_3p_type1 seasons=1 ratings=[400] normamps=400 emergamps=600
new object=line.l_3073_3074 bus1=bus3073.1.2.3 bus2=bus3074.1.2.3 phases=3 length=340 units=ft linecode=oh_3p_type1 seasons=1 ratings=[400] normamps=400 emergamps=600
new object=line.l_3068_3075 bus1=bus3068.1.2.3 bus2=bus3075.1.2.3 phases=3 length=188 units=ft linecode=oh_3p_type1 seasons=1 ratings=[400] normamps=400 emergamps=600
new object=line.l_3076_3077 bus1=bus3076.1.2.3 bus2=bus3077.1.2.3 phases=3 length=877 units=ft linecode=oh_3p_type1 seasons=1 ratings=[400] normamps=400 emergamps=600
new object=line.l_3077_3078 bus1=bus3077.1.2.3 bus2=bus3078.1.2.3 phases=3 length=80 units=ft linecode=oh_3p_type1 seasons=1 ratings=[400] normamps=400 emergamps=600
new object=line.l_3076_3079 bus1=bus3076.1.2.3 bus2=bus3079.1.2.3 phases=3 length=191 units=ft linecode=oh_3p_type1 seasons=1 ratings=[400] normamps=400 emergamps=600
new object=line.l_3079_3080 bus1=bus3079.1.2.3 bus2=bus3080.1.2.3 phases=3 length=604 units=ft linecode=oh_3p_type1 seasons=1 ratings=[400] normamps=400 emergamps=600
new object=line.l_3080_3081 bus1=bus3080.1.2.3 bus2=bus3081.1.2.3 phases=3 length=195 units=ft linecode=oh_3p_type1 seasons=1 ratings=[400] normamps=400 emergamps=600
new object=line.l_3080_3082 bus1=bus3080.1.2.3 bus2=bus3082.1.2.3 phases=3 length=540 units=ft linecode=oh_3p_type1 seasons=1 ratings=[400] normamps=400 emergamps=600
new object=line.l_3082_3083 bus1=bus3082.1 bus2=bus3083.1 phases=1 length=125 units=ft linecode=ug_1p_type2 seasons=1 ratings=[400] normamps=400 emergamps=600
new object=line.l_3083_3084 bus1=bus3083.1 bus2=bus3084.1 phases=1 length=196 units=ft linecode=ug_1p_type2 seasons=1 ratings=[400] normamps=400 emergamps=600
new object=line.l_3084_3085 bus1=bus3084.1 bus2=bus3085.1 phases=1 length=515 units=ft linecode=ug_1p_type2 seasons=1 ratings=[400] normamps=400 emergamps=600