clock {
	timezone PST+8PDT;
	starttime '2013-01-01 00:00:00';
	stoptime '2013-01-01 00:00:00';
};

#set minimum_timestep=60;
#set profiler=1;
#set relax_naming_rules=1;
module generators;
module tape;
module residential {
	implicit_enduses NONE;
};

module powerflow {
	solver_method NR;
	NR_iteration_limit 50;
};

object node {
	phases ABCN;
	name COLOMA SUB;
	bustype SWING;
	nominal_voltage 7200.0;
};

object regulator_configuration {
	Control MANUAL;
	raise_taps 10;
	name Coloma Bus Regs-CONFIG;
	PT_phase ABC;
	tap_pos_B 3;
	connect_type 1;
	CT_phase ABC;
	regulation 0.10;
	tap_pos_A 3;
	control_level INDIVIDUAL;
	tap_pos_C 3;
	Type A;
	lower_taps 10;
};

object regulator {
	phases ACB;
	from COLOMA SUB;
	name Coloma Bus Regs;
	to nodeCOLOMA4Coloma Bus Regs;
	configuration Coloma Bus Regs-CONFIG;
};

object fuse {
	phases ACB;
	from nodeCOLOMA4Coloma Bus Regs;
	name COLOMA4;
	current_limit 9999.0 A;
	to node948739COLOMA4;
};

object underground_line {
	phases ACB;
	from node948739COLOMA4;
	name 948739;
	to node824694948739;
	length 70;
	configuration 923991-LINECONFIG;
};

object underground_line {
	phases ACB;
	from node824694948739;
	name 824694;
	to nodeRCMA4-R0001x1824694;
	length 70;
	configuration 923991-LINECONFIG;
};

object fuse {
	phases ACB;
	from nodeRCMA4-R0001x1824694;
	name RCMA4-R0001x1;
	current_limit 9999.0 A;
	to node984636RCMA4-R0001x1;
};

object underground_line {
	phases ACB;
	from node984636RCMA4-R0001x1;
	name 984636;
	to node984637984636;
	length 133;
	configuration 923991-LINECONFIG;
};

object underground_line {
	phases ACB;
	from node984637984636;
	name 984637;
	to node984634984637;
	length 10;
	configuration 923991-LINECONFIG;
};

object underground_line {
	phases ACB;
	from node984634984637;
	name 984634;
	to node12049x1-B984634;
	length 10;
	configuration 923991-LINECONFIG;
};

object underground_line {
	phases ACB;
	from node984634984637;
	name 984638;
	to node984639984638;
	length 10;
	configuration 923991-LINECONFIG;
};

object underground_line {
	phases ACB;
	from node984639984638;
	name 984639;
	to node824697984639;
	length 781;
	configuration 923991-LINECONFIG;
};

object underground_line {
	phases B;
	from node824697984639;
	name 824697;
	to nodeT21526824697;
	length 26;
	configuration 825117-LINECONFIG;
};

object underground_line {
	phases ACB;
	from node824697984639;
	name 824700;
	to node824701824700;
	length 257;
	configuration 923991-LINECONFIG;
};

object overhead_line {
	phases ACBN;
	from node824701824700;
	name 824701;
	to node824702824701;
	length 129;
	configuration 824894-LINECONFIG;
};

object overhead_line {
	phases ACBN;
	from node824702824701;
	name 824702;
	to node824704824702;
	length 30;
	configuration 824894-LINECONFIG;
};

object overhead_line {
	phases ACBN;
	from node824704824702;
	name 824704;
	to node824705824704;
	length 752;
	configuration 824894-LINECONFIG;
};

object overhead_line {
	phases ACB;
	from node824705824704;
	name 824705;
	to node1808-19-005824705;
	length 140;
	configuration 824830-LINECONFIG;
};

object overhead_line {
	phases ACBN;
	from node824705824704;
	name 824707;
	to node979614824707;
	length 1574;
	configuration 824894-LINECONFIG;
};

object underground_line {
	phases ACB;
	from node979614824707;
	name 979614;
	to node979615979614;
	length 20;
	configuration 923991-LINECONFIG;
};

object underground_line {
	phases ACB;
	from node979615979614;
	name 979615;
	to nodeT28934979615;
	length 960;
	configuration 825456-LINECONFIG;
};

object underground_line {
	phases ACB;
	from node979615979614;
	name 979617;
	to nodeT28933979617;
	length 140;
	configuration 825456-LINECONFIG;
};

object overhead_line {
	phases ACB;
	from node979614824707;
	name 979839;
	to node824712979839;
	length 50;
	configuration 824894-LINECONFIG;
};

object underground_line {
	phases ACB;
	from node824712979839;
	name 824712;
	to node824713824712;
	length 1036;
	configuration 825456-LINECONFIG;
};

object underground_line {
	phases B;
	from node824713824712;
	name 824713;
	to node1808-19-008824713;
	length 392;
	configuration 825117-LINECONFIG;
};

object underground_line {
	phases C;
	from node824713824712;
	name 824715;
	to node824716824715;
	length 830;
	configuration 925975-LINECONFIG;
};

object underground_line {
	phases C;
	from node824716824715;
	name 824716;
	to nodeR7229x1824716;
	length 20;
	configuration 925975-LINECONFIG;
};

object fuse {
	phases C;
	from nodeR7229x1824716;
	name R7229x1;
	current_limit 9999.0 A;
	to node920601R7229x1;
};

object overhead_line {
	phases CN;
	from node920601R7229x1;
	name 920601;
	to node824717920601;
	length 778;
	configuration 824825-LINECONFIG;
};

object overhead_line {
	phases CN;
	from node824717920601;
	name 824717;
	to node824718824717;
	length 1237;
	configuration 824825-LINECONFIG;
};

object overhead_line {
	phases CN;
	from node824718824717;
	name 824718;
	to node824720824718;
	length 433;
	configuration 824825-LINECONFIG;
};

object overhead_line {
	phases CN;
	from node824720824718;
	name 824720;
	to node824721824720;
	length 1357;
	configuration 824825-LINECONFIG;
};

object overhead_line {
	phases CN;
	from node824721824720;
	name 824721;
	to node824722824721;
	length 1076;
	configuration 824825-LINECONFIG;
};

object overhead_line {
	phases CN;
	from node824722824721;
	name 824722;
	to node824723824722;
	length 1073;
	configuration 824825-LINECONFIG;
};

object overhead_line {
	phases CN;
	from node824723824722;
	name 824723;
	to node906386824723;
	length 714;
	configuration 824825-LINECONFIG;
};

object overhead_line {
	phases CN;
	from node906386824723;
	name 906386;
	to node824726906386;
	length 335;
	configuration 824825-LINECONFIG;
};

object overhead_line {
	phases CN;
	from node824726906386;
	name 824726;
	to node824727824726;
	length 376;
	configuration 824825-LINECONFIG;
};

object overhead_line {
	phases CN;
	from node824727824726;
	name 824727;
	to node824728824727;
	length 555;
	configuration 824825-LINECONFIG;
};

object overhead_line {
	phases CN;
	from node824728824727;
	name 824728;
	to node824729824728;
	length 588;
	configuration 824825-LINECONFIG;
};

object overhead_line {
	phases CN;
	from node824729824728;
	name 824729;
	to node824730824729;
	length 142;
	configuration 824825-LINECONFIG;
};

object overhead_line {
	phases CN;
	from node824730824729;
	name 824730;
	to node824731824730;
	length 311;
	configuration 824825-LINECONFIG;
};

object overhead_line {
	phases CN;
	from node824731824730;
	name 824731;
	to node824732824731;
	length 281;
	configuration 824825-LINECONFIG;
};

object overhead_line {
	phases CN;
	from node824732824731;
	name 824732;
	to node824733824732;
	length 282;
	configuration 824825-LINECONFIG;
};

object overhead_line {
	phases CN;
	from node824733824732;
	name 824733;
	to node824734824733;
	length 592;
	configuration 824825-LINECONFIG;
};

object overhead_line {
	phases C;
	from node824734824733;
	name 824734;
	to node824738824734;
	length 242;
	configuration 824825-LINECONFIG;
};

object underground_line {
	phases C;
	from node824738824734;
	name 824738;
	to nodeF7974x1824738;
	length 50;
	configuration 925975-LINECONFIG;
};

object fuse {
	phases C;
	from nodeF7974x1824738;
	name F7974x1;
	current_limit 9999.0 A;
	to node824739F7974x1;
};

object underground_line {
	phases C;
	from node824739F7974x1;
	name 824739;
	to node824740824739;
	length 1217;
	configuration 925975-LINECONFIG;
};

object underground_line {
	phases C;
	from node824740824739;
	name 824740;
	to node824741824740;
	length 816;
	configuration 925975-LINECONFIG;
};

object underground_line {
	phases C;
	from node824741824740;
	name 824741;
	to node824742824741;
	length 380;
	configuration 925975-LINECONFIG;
};

object underground_line {
	phases C;
	from node824742824741;
	name 824742;
	to nodeFCMA4-F008x1824742;
	length 178;
	configuration 925975-LINECONFIG;
};

object fuse {
	phases C;
	from nodeFCMA4-F008x1824742;
	name FCMA4-F008x1;
	current_limit 9999.0 A;
	to node824743FCMA4-F008x1;
};

object underground_line {
	phases C;
	from node824743FCMA4-F008x1;
	name 824743;
	to node1808-0151824743;
	length 699;
	configuration 925975-LINECONFIG;
};

object underground_line {
	phases C;
	from node824742824741;
	name 824745;
	to node1808-0164824745;
	length 305;
	configuration 925975-LINECONFIG;
};

object underground_line {
	phases C;
	from node824732824731;
	name 905282;
	to nodeF5088x1905282;
	length 22;
	configuration 925975-LINECONFIG;
};

object fuse {
	phases C;
	from nodeF5088x1905282;
	name F5088x1;
	current_limit 9999.0 A;
	to node905284F5088x1;
};

object underground_line {
	phases C;
	from node905284F5088x1;
	name 905284;
	to nodeT5087905284;
	length 432;
	configuration 925975-LINECONFIG;
};

object overhead_line {
	phases CN;
	from node824731824730;
	name 824747;
	to node824748824747;
	length 409;
	configuration 824825-LINECONFIG;
};

object overhead_line {
	phases CN;
	from node824748824747;
	name 824748;
	to node824750824748;
	length 112;
	configuration 824825-LINECONFIG;
};

object overhead_line {
	phases CN;
	from node824750824748;
	name 824750;
	to node824751824750;
	length 100;
	configuration 824825-LINECONFIG;
};

object overhead_line {
	phases CN;
	from node824751824750;
	name 824751;
	to node824752824751;
	length 175;
	configuration 824825-LINECONFIG;
};

object overhead_line {
	phases CN;
	from node824752824751;
	name 824752;
	to node824755824752;
	length 300;
	configuration 824825-LINECONFIG;
};

object overhead_line {
	phases CN;
	from node824755824752;
	name 824755;
	to node824759824755;
	length 309;
	configuration 824825-LINECONFIG;
};

object overhead_line {
	phases CN;
	from node824759824755;
	name 824759;
	to node900841824759;
	length 322;
	configuration 949086-LINECONFIG;
};

object overhead_line {
	phases CN;
	from node900841824759;
	name 900841;
	to node824760900841;
	length 190;
	configuration 949086-LINECONFIG;
};

object overhead_line {
	phases CN;
	from node824760900841;
	name 824760;
	to node900842824760;
	length 315;
	configuration 949086-LINECONFIG;
};

object overhead_line {
	phases CN;
	from node900842824760;
	name 900842;
	to node949086900842;
	length 335;
	configuration 949086-LINECONFIG;
};

object line_configuration {
	conductor_N 949086_conductor_N;
	spacing 825694-LINESPACING;
	name 949086-LINECONFIG;
	conductor_C 949086_conductor_N;
};

object overhead_line_conductor {
	diameter 0.721;
	resistance 1.65;
	name 949086_conductor_N;
	geometric_mean_radius 0.00504;
};

object overhead_line {
	phases CN;
	from node949086900842;
	name 949086;
	to node824761949086;
	length 315;
	configuration 949086-LINECONFIG;
};

object overhead_line {
	phases CN;
	from node824761949086;
	name 824761;
	to node914176824761;
	length 325;
	configuration 914176-LINECONFIG;
};

object line_configuration {
	conductor_N 824894_conductor_N;
	spacing 825694-LINESPACING;
	name 914176-LINECONFIG;
	conductor_C 824894_conductor_C;
};

object overhead_line {
	phases C;
	from node914176824761;
	name 914176;
	to node1808-29-023914176;
	length 300;
	configuration 914176-LINECONFIG;
};

object underground_line {
	phases C;
	from node824761949086;
	name 949050;
	to node12900x1-Bx1949050;
	length 659;
	configuration 925975-LINECONFIG;
};

object underground_line {
	phases C;
	from node824760900841;
	name 824798;
	to nodeFCMA4-F074x1824798;
	length 66;
	configuration 925975-LINECONFIG;
};

object fuse {
	phases C;
	from nodeFCMA4-F074x1824798;
	name FCMA4-F074x1;
	current_limit 9999.0 A;
	to node824799FCMA4-F074x1;
};

object underground_line {
	phases C;
	from node824799FCMA4-F074x1;
	name 824799;
	to node824800824799;
	length 58;
	configuration 925975-LINECONFIG;
};

object underground_line {
	phases C;
	from node824800824799;
	name 824800;
	to node824802824800;
	length 587;
	configuration 925975-LINECONFIG;
};

object underground_line {
	phases C;
	from node824802824800;
	name 824802;
	to node1808-0088824802;
	length 194;
	configuration 925975-LINECONFIG;
};

object overhead_line {
	phases C;
	from node824759824755;
	name 824805;
	to node1808-29-032824805;
	length 248;
	configuration 824825-LINECONFIG;
};

object underground_line {
	phases C;
	from node824759824755;
	name 824809;
	to nodeFCMA4-F056x1824809;
	length 49;
	configuration 925975-LINECONFIG;
};

object fuse {
	phases C;
	from nodeFCMA4-F056x1824809;
	name FCMA4-F056x1;
	current_limit 9999.0 A;
	to node824810FCMA4-F056x1;
};

object underground_line {
	phases C;
	from node824810FCMA4-F056x1;
	name 824810;
	to node1808-0144824810;
	length 360;
	configuration 925975-LINECONFIG;
};

object underground_line {
	phases C;
	from node824727824726;
	name 824814;
	to nodeFCMA4-F107x1824814;
	length 78;
	configuration 925975-LINECONFIG;
};

object fuse {
	phases C;
	from nodeFCMA4-F107x1824814;
	name FCMA4-F107x1;
	current_limit 9999.0 A;
	to node824815FCMA4-F107x1;
};

object underground_line {
	phases C;
	from node824815FCMA4-F107x1;
	name 824815;
	to node824816824815;
	length 131;
	configuration 925975-LINECONFIG;
};

object underground_line {
	phases C;
	from node824816824815;
	name 824816;
	to node1808-29-034824816;
	length 403;
	configuration 925975-LINECONFIG;
};

object underground_line {
	phases C;
	from node824816824815;
	name 824818;
	to node824820824818;
	length 198;
	configuration 925975-LINECONFIG;
};

object underground_line {
	phases C;
	from node824820824818;
	name 824820;
	to node1808-0150824820;
	length 534;
	configuration 925975-LINECONFIG;
};

object underground_line {
	phases C;
	from node906386824723;
	name 911237;
	to node911238911237;
	length 45;
	configuration 925975-LINECONFIG;
};

object underground_line {
	phases C;
	from node911238911237;
	name 911238;
	to nodeT4114911238;
	length 280;
	configuration 925975-LINECONFIG;
};

object underground_line {
	phases C;
	from node824722824721;
	name 824822;
	to nodeF18632x1824822;
	length 70;
	configuration 825688-LINECONFIG;
};

object fuse {
	phases C;
	from nodeF18632x1824822;
	name F18632x1;
	current_limit 9999.0 A;
	to node824823F18632x1;
};

object underground_line {
	phases C;
	from node824823F18632x1;
	name 824823;
	to node900921824823;
	length 17;
	configuration 825688-LINECONFIG;
};

object underground_line {
	phases C;
	from node900921824823;
	name 900921;
	to nodeT18630900921;
	length 2486;
	configuration 825688-LINECONFIG;
};

object overhead_line {
	phases CN;
	from node824722824721;
	name 910307;
	to node910308910307;
	length 250;
	configuration 825694-LINECONFIG;
};

object overhead_line {
	phases C;
	from node910308910307;
	name 910308;
	to node1808-20-011910308;
	length 250;
	configuration 825694-LINECONFIG;
};

object line_configuration {
	conductor_N 913826_conductor_N;
	spacing 825694-LINESPACING;
	name 824825-LINECONFIG;
	conductor_C 913826_conductor_N;
};

object overhead_line {
	phases C;
	from node824717920601;
	name 824825;
	to node1808-20-008824825;
	length 338;
	configuration 824825-LINECONFIG;
};

object underground_line {
	phases ACB;
	from node824713824712;
	name 824827;
	to node974368824827;
	length 1032;
	configuration 825456-LINECONFIG;
};

object underground_line {
	phases ACB;
	from node974368824827;
	name 974368;
	to nodeT29595974368;
	length 678;
	configuration 825456-LINECONFIG;
};

object underground_line {
	phases ACB;
	from node974368824827;
	name 974371;
	to nodeT29596974371;
	length 668;
	configuration 825456-LINECONFIG;
};

object line_configuration {
	name 824830-LINECONFIG;
	spacing 824894-LINESPACING;
	conductor_N 825694_conductor_N;
	conductor_A 825694_conductor_N;
	conductor_C 825694_conductor_N;
	conductor_B 825694_conductor_N;
};

object overhead_line {
	phases ACB;
	from node824701824700;
	name 824830;
	to node1808-19-009824830;
	length 204;
	configuration 824830-LINECONFIG;
};

object underground_line {
	phases ACB;
	from node824697984639;
	name 824833;
	to node824834824833;
	length 281;
	configuration 923991-LINECONFIG;
};

object underground_line {
	phases ACB;
	from node824834824833;
	name 824834;
	to node533x1-Bx1824834;
	length 10;
	configuration 824901-LINECONFIG;
};

object switch {
	status CLOSED;
	phases ACB;
	from node533x1-Bx1824834;
	name 533x1-Bx1;
	to node533x1-Ax1533x1-Bx1;
};

object switch {
	status CLOSED;
	phases ACB;
	from node533x1-Ax1533x1-Bx1;
	name 533x1-Ax1;
	to node824835533x1-Ax1;
};

object overhead_line {
	phases ACBN;
	from node824835533x1-Ax1;
	name 824835;
	to node824836824835;
	length 75;
	configuration 824894-LINECONFIG;
};

object overhead_line {
	phases ACBN;
	from node824836824835;
	name 824836;
	to node824837824836;
	length 254;
	configuration 824894-LINECONFIG;
};

object overhead_line {
	phases ACBN;
	from node824837824836;
	name 824837;
	to node824838824837;
	length 3360;
	configuration 824894-LINECONFIG;
};

object underground_line {
	phases ACB;
	from node824838824837;
	name 824838;
	to nodeFCMA4-F016x1824838;
	length 117;
	configuration 825456-LINECONFIG;
};

object fuse {
	phases ACB;
	from nodeFCMA4-F016x1824838;
	name FCMA4-F016x1;
	current_limit 9999.0 A;
	to node824839FCMA4-F016x1;
};

object underground_line {
	phases ACB;
	from node824839FCMA4-F016x1;
	name 824839;
	to node1808-19-010824839;
	length 2136;
	configuration 825456-LINECONFIG;
};

object overhead_line {
	phases ACBN;
	from node824838824837;
	name 824842;
	to node824843824842;
	length 380;
	configuration 824894-LINECONFIG;
};

object overhead_line {
	phases ACBN;
	from node824843824842;
	name 824843;
	to node824844824843;
	length 689;
	configuration 824894-LINECONFIG;
};

object overhead_line {
	phases ACBN;
	from node824844824843;
	name 824844;
	to node824847824844;
	length 3236;
	configuration 824894-LINECONFIG;
};

object overhead_line {
	phases ACBN;
	from node824847824844;
	name 824847;
	to node824848824847;
	length 1014;
	configuration 824894-LINECONFIG;
};

object underground_line {
	phases C;
	from node824848824847;
	name 824848;
	to nodeR7231x1824848;
	length 118;
	configuration 925975-LINECONFIG;
};

object fuse {
	phases C;
	from nodeR7231x1824848;
	name R7231x1;
	current_limit 9999.0 A;
	to node824849R7231x1;
};

object underground_line {
	phases C;
	from node824849R7231x1;
	name 824849;
	to node824850824849;
	length 2623;
	configuration 925975-LINECONFIG;
};

object underground_line {
	phases C;
	from node824850824849;
	name 824850;
	to node1807-0244824850;
	length 1877;
	configuration 925975-LINECONFIG;
};

object overhead_line {
	phases CN;
	from node824850824849;
	name 824852;
	to node824853824852;
	length 301;
	configuration 825694-LINECONFIG;
};

object overhead_line {
	phases CN;
	from node824853824852;
	name 824853;
	to node824855824853;
	length 1294;
	configuration 825694-LINECONFIG;
};

object overhead_line {
	phases CN;
	from node824855824853;
	name 824855;
	to node824857824855;
	length 339;
	configuration 825694-LINECONFIG;
};

object overhead_line {
	phases CN;
	from node824857824855;
	name 824857;
	to node824858824857;
	length 317;
	configuration 825694-LINECONFIG;
};

object overhead_line {
	phases CN;
	from node824858824857;
	name 824858;
	to node824859824858;
	length 303;
	configuration 825694-LINECONFIG;
};

object overhead_line {
	phases CN;
	from node824859824858;
	name 824859;
	to node980396824859;
	length 930;
	configuration 825694-LINECONFIG;
};

object overhead_line {
	phases CN;
	from node980396824859;
	name 980396;
	to node980393980396;
	length 300;
	configuration 825694-LINECONFIG;
};

object overhead_line {
	phases CN;
	from node980393980396;
	name 980393;
	to node824860980393;
	length 143;
	configuration 825694-LINECONFIG;
};

object overhead_line {
	phases CN;
	from node824860980393;
	name 824860;
	to node923236824860;
	length 143;
	configuration 825694-LINECONFIG;
};

object overhead_line {
	phases CN;
	from node923236824860;
	name 923236;
	to node923237923236;
	length 264;
	configuration 825694-LINECONFIG;
};

object overhead_line {
	phases CN;
	from node923237923236;
	name 923237;
	to node923238923237;
	length 257;
	configuration 825694-LINECONFIG;
};

object overhead_line {
	phases CN;
	from node923238923237;
	name 923238;
	to node824862923238;
	length 293;
	configuration 825694-LINECONFIG;
};

object overhead_line {
	phases CN;
	from node824862923238;
	name 824862;
	to node923239824862;
	length 321;
	configuration 825694-LINECONFIG;
};

object overhead_line {
	phases CN;
	from node923239824862;
	name 923239;
	to node923240923239;
	length 252;
	configuration 825694-LINECONFIG;
};

object overhead_line {
	phases CN;
	from node923240923239;
	name 923240;
	to node923241923240;
	length 249;
	configuration 825694-LINECONFIG;
};

object overhead_line {
	phases CN;
	from node923241923240;
	name 923241;
	to node923242923241;
	length 258;
	configuration 825694-LINECONFIG;
};

object overhead_line {
	phases C;
	from node923242923241;
	name 923242;
	to nodeF7815x1923242;
	length 270;
	configuration 825694-LINECONFIG;
};

object fuse {
	phases C;
	from nodeF7815x1923242;
	name F7815x1;
	current_limit 9999.0 A;
	to node922977F7815x1;
};

object underground_line {
	phases C;
	from node922977F7815x1;
	name 922977;
	to node922975922977;
	length 56;
	configuration 925975-LINECONFIG;
};

object underground_line {
	phases C;
	from node922975922977;
	name 922975;
	to node922976922975;
	length 150;
	configuration 925975-LINECONFIG;
};

object underground_line {
	phases C;
	from node922976922975;
	name 922976;
	to nodeT12925922976;
	length 1320;
	configuration 925975-LINECONFIG;
};

object underground_line {
	phases C;
	from node922976922975;
	name 922978;
	to node922979922978;
	length 1300;
	configuration 925975-LINECONFIG;
};

object underground_line {
	phases C;
	from node922979922978;
	name 922979;
	to node922980922979;
	length 30;
	configuration 925975-LINECONFIG;
};

object underground_line {
	phases C;
	from node922980922979;
	name 922980;
	to node1807-0304922980;
	length 597;
	configuration 925975-LINECONFIG;
};

object underground_line {
	phases C;
	from node922979922978;
	name 922981;
	to node824871922981;
	length 25;
	configuration 925975-LINECONFIG;
};

object underground_line {
	phases C;
	from node824871922981;
	name 824871;
	to node922983824871;
	length 372;
	configuration 825688-LINECONFIG;
};

object underground_line {
	phases C;
	from node922983824871;
	name 922983;
	to node1807-0292922983;
	length 1250;
	configuration 825688-LINECONFIG;
};

object underground_line {
	phases C;
	from node980393980396;
	name 980395;
	to node980394980395;
	length 1162;
	configuration 925975-LINECONFIG;
};

object overhead_line {
	phases CN;
	from node980394980395;
	name 980394;
	to node824878980394;
	length 246;
	configuration 825694-LINECONFIG;
};

object overhead_line {
	phases C;
	from node824878980394;
	name 824878;
	to node1807-36-005824878;
	length 101;
	configuration 825694-LINECONFIG;
};

object underground_line {
	phases C;
	from node824878980394;
	name 824880;
	to nodeF5402x1824880;
	length 15;
	configuration 925975-LINECONFIG;
};

object fuse {
	phases C;
	from nodeF5402x1824880;
	name F5402x1;
	current_limit 9999.0 A;
	to node824881F5402x1;
};

object underground_line {
	phases C;
	from node824881F5402x1;
	name 824881;
	to node1807-0299824881;
	length 553;
	configuration 925975-LINECONFIG;
};

object overhead_line {
	phases CN;
	from node824850824849;
	name 824883;
	to node824884824883;
	length 198;
	configuration 825694-LINECONFIG;
};

object overhead_line {
	phases CN;
	from node824884824883;
	name 824884;
	to node824885824884;
	length 1300;
	configuration 825694-LINECONFIG;
};

object overhead_line {
	phases C;
	from node824885824884;
	name 824885;
	to node1807-25-007824885;
	length 176;
	configuration 825694-LINECONFIG;
};

object underground_line {
	phases C;
	from node824885824884;
	name 824887;
	to nodeF18666x1824887;
	length 38;
	configuration 925975-LINECONFIG;
};

object fuse {
	phases C;
	from nodeF18666x1824887;
	name F18666x1;
	current_limit 9999.0 A;
	to node824888F18666x1;
};

object underground_line {
	phases C;
	from node824888F18666x1;
	name 824888;
	to node824889824888;
	length 1084;
	configuration 925975-LINECONFIG;
};

object underground_line {
	phases C;
	from node824889824888;
	name 824889;
	to node824890824889;
	length 1165;
	configuration 925975-LINECONFIG;
};

object underground_line {
	phases C;
	from node824890824889;
	name 824890;
	to node950220824890;
	length 384;
	configuration 925975-LINECONFIG;
};

object underground_line {
	phases C;
	from node950220824890;
	name 950220;
	to nodeT11989950220;
	length 770;
	configuration 925975-LINECONFIG;
};

object underground_line {
	phases C;
	from node824848824847;
	name 825629;
	to nodeR7230x1825629;
	length 47;
	configuration 925975-LINECONFIG;
};

object fuse {
	phases C;
	from nodeR7230x1825629;
	name R7230x1;
	current_limit 9999.0 A;
	to node972841R7230x1;
};

object underground_line {
	phases C;
	from node972841R7230x1;
	name 972841;
	to node825630972841;
	length 1131;
	configuration 925975-LINECONFIG;
};

object underground_line {
	phases C;
	from node825630972841;
	name 825630;
	to node825631825630;
	length 1977;
	configuration 925975-LINECONFIG;
};

object underground_line {
	phases C;
	from node825631825630;
	name 825631;
	to node825632825631;
	length 384;
	configuration 925975-LINECONFIG;
};

object underground_line {
	phases C;
	from node825632825631;
	name 825632;
	to node825633825632;
	length 365;
	configuration 925975-LINECONFIG;
};

object underground_line {
	phases C;
	from node825633825632;
	name 825633;
	to node825634825633;
	length 336;
	configuration 925975-LINECONFIG;
};

object underground_line {
	phases C;
	from node825634825633;
	name 825634;
	to node825635825634;
	length 336;
	configuration 925975-LINECONFIG;
};

object underground_line {
	phases C;
	from node825635825634;
	name 825635;
	to node825636825635;
	length 366;
	configuration 925975-LINECONFIG;
};

object underground_line {
	phases C;
	from node825636825635;
	name 825636;
	to node825637825636;
	length 695;
	configuration 925975-LINECONFIG;
};

object underground_line {
	phases C;
	from node825637825636;
	name 825637;
	to node902721825637;
	length 39;
	configuration 925975-LINECONFIG;
};

object underground_line {
	phases C;
	from node902721825637;
	name 902721;
	to node825638902721;
	length 20;
	configuration 925975-LINECONFIG;
};

object underground_line {
	phases C;
	from node825638902721;
	name 825638;
	to node825639825638;
	length 336;
	configuration 925975-LINECONFIG;
};

object underground_line {
	phases C;
	from node825639825638;
	name 825639;
	to nodeT3285825639;
	length 160;
	configuration 925975-LINECONFIG;
};

object underground_line {
	phases C;
	from node825639825638;
	name 902741;
	to node825641902741;
	length 1299;
	configuration 925975-LINECONFIG;
};

object underground_line {
	phases C;
	from node825641902741;
	name 825641;
	to nodeT3286825641;
	length 101;
	configuration 925975-LINECONFIG;
};

object underground_line {
	phases C;
	from node825641902741;
	name 825644;
	to nodeT3287825644;
	length 542;
	configuration 925975-LINECONFIG;
};

object underground_line {
	phases C;
	from node825641902741;
	name 902742;
	to nodeT3288902742;
	length 566;
	configuration 925975-LINECONFIG;
};

object underground_line {
	phases C;
	from node825637825636;
	name 825646;
	to node825647825646;
	length 119;
	configuration 925975-LINECONFIG;
};

object underground_line {
	phases C;
	from node825647825646;
	name 825647;
	to node825648825647;
	length 607;
	configuration 925975-LINECONFIG;
};

object underground_line {
	phases C;
	from node825648825647;
	name 825648;
	to node914744825648;
	length 339;
	configuration 925975-LINECONFIG;
};

object underground_line {
	phases C;
	from node914744825648;
	name 914744;
	to node825649914744;
	length 293;
	configuration 925975-LINECONFIG;
};

object underground_line {
	phases C;
	from node825649914744;
	name 825649;
	to node825652825649;
	length 466;
	configuration 925975-LINECONFIG;
};

object overhead_line {
	phases CN;
	from node825652825649;
	name 825652;
	to node825654825652;
	length 398;
	configuration 825694-LINECONFIG;
};

object overhead_line {
	phases CN;
	from node825654825652;
	name 825654;
	to node825656825654;
	length 362;
	configuration 825694-LINECONFIG;
};

object overhead_line {
	phases CN;
	from node825656825654;
	name 825656;
	to node825657825656;
	length 213;
	configuration 825694-LINECONFIG;
};

object overhead_line {
	phases CN;
	from node825657825656;
	name 825657;
	to node825658825657;
	length 295;
	configuration 825694-LINECONFIG;
};

object overhead_line {
	phases CN;
	from node825658825657;
	name 825658;
	to node825659825658;
	length 435;
	configuration 825694-LINECONFIG;
};

object overhead_line {
	phases C;
	from node825659825658;
	name 825659;
	to node1808-32-008825659;
	length 401;
	configuration 825694-LINECONFIG;
};

object overhead_line {
	phases CN;
	from node825652825649;
	name 825662;
	to node825663825662;
	length 207;
	configuration 825692-LINECONFIG;
};

object overhead_line {
	phases CN;
	from node825663825662;
	name 825663;
	to node825664825663;
	length 52;
	configuration 825692-LINECONFIG;
};

object overhead_line {
	phases CN;
	from node825664825663;
	name 825664;
	to node825666825664;
	length 273;
	configuration 825692-LINECONFIG;
};

object overhead_line {
	phases CN;
	from node825666825664;
	name 825666;
	to node825667825666;
	length 310;
	configuration 825692-LINECONFIG;
};

object overhead_line {
	phases C;
	from node825667825666;
	name 825667;
	to node1808-32-014825667;
	length 215;
	configuration 825694-LINECONFIG;
};

object overhead_line {
	phases CN;
	from node825667825666;
	name 825675;
	to node825676825675;
	length 435;
	configuration 825692-LINECONFIG;
};

object overhead_line {
	phases CN;
	from node825676825675;
	name 825676;
	to node825678825676;
	length 409;
	configuration 825692-LINECONFIG;
};

object overhead_line {
	phases CN;
	from node825678825676;
	name 825678;
	to node910316825678;
	length 227;
	configuration 825692-LINECONFIG;
};

object overhead_line {
	phases CN;
	from node910316825678;
	name 910316;
	to node825679910316;
	length 94;
	configuration 825692-LINECONFIG;
};

object overhead_line {