New Loadshape.SubVoltage npts=8739, minterval=60, Pmult=(sngfile=Profiles\SubV_PhaseA_60minInst.sng) UseActual=False

