clock {
	timezone PST+8PDT;
	starttime '2000-01-01 00:00:00';
	stoptime '2000-01-01 00:00:00';
};

#set minimum_timestep=60;
#set profiler=1;
#set relax_naming_rules=1;
module generators;
module tape;
module residential {
	implicit_enduses NONE;
};

module powerflow {
	solver_method NR;
	NR_iteration_limit 50;
};

object node {
	phases ABCN;
	name STONECITY(25);
	bustype SWING;
	longitude 798.55956165;
	nominal_voltage 7200.0;
	latitude 80.7468912822;
};

object overhead_line {
	phases ACBN;
	from STONECITY(25);
	name 100037138;
	longitude 799.41076191;
	to node100044451100037138;
	length 45.5201;
	latitude 80.4743178946;
	configuration 100037370-LINECONFIG;
};

object overhead_line {
	phases ACBN;
	from STONECITY(25);
	name 100037403;
	longitude 797.695020919;
	to node100044448100037403;
	length 48.9003;
	latitude 80.2375653732;
	configuration 100044450-LINECONFIG;
};

object overhead_line {
	phases ACB;
	from node100044448100037403;
	name 100044448;
	to node25-01100044448;
	longitude 797.227314122;
	length 35.509;
	latitude 79.5446727539;
	configuration 100044450-LINECONFIG;
};

object fuse {
	phases ACB;
	from node25-01100044448;
	name 25-01;
	current_limit 9999.0 A;
	longitude 797.227314122;
	to node10004444925-01;
	latitude 79.5446727539;
};

object overhead_line {
	phases ACBN;
	from node10004444925-01;
	name 100044449;
	longitude 796.921480838;
	to node100038710100044449;
	length 23.2194;
	latitude 79.0915878551;
	configuration 100044450-LINECONFIG;
};

object overhead_line {
	phases ACBN;
	from node100038710100044449;
	name 100038710;
	longitude 775.370236817;
	to node100038199100038710;
	length 1169.16;
	latitude 85.2493386128;
	configuration 100044450-LINECONFIG;
};

object overhead_line {
	phases ACB;
	from node100038199100038710;
	name 100038199;
	longitude 776.494156862;
	to nodeT95060019100038199;
	length 194.449;
	latitude 90.2258365414;
	configuration 100044450-LINECONFIG;
};

object overhead_line {
	phases ACB;
	from node100038199100038710;
	name 100041428;
	longitude 696.127489087;
	to node100041418100041428;
	length 4481.51;
	latitude 127.533008637;
	configuration 100044450-LINECONFIG;
};

object underground_line {
	phases ACB;
	from node100041418100041428;
	name 100041418;
	to node100047422100041418;
	longitude 668.253372302;
	length 2140.83;
	latitude 116.170789829;
	configuration 100046964-LINECONFIG;
};

object underground_line {
	phases ACB;
	from node100047422100041418;
	name 100047422;
	longitude 662.831939072;
	to node100046695100047422;
	length 335.442;
	latitude 121.020522267;
	configuration 100046964-LINECONFIG;
};

object underground_line {
	phases ACB;
	from node100046695100047422;
	name 100046695;
	longitude 656.20037385;
	to node100046964100046695;
	length 410.318;
	latitude 126.952847009;
	configuration 100046964-LINECONFIG;
};

object line_configuration {
	name 100046964-LINECONFIG;
	spacing 100046964-LINESPACING;
	conductor_C 100046763-LINECONFIGunderground_line_conductor115604;
	conductor_B 100046763-LINECONFIGunderground_line_conductor115604;
	conductor_A 100046763-LINECONFIGunderground_line_conductor115604;
};

object line_spacing {
	distance_AN 0.0;
	name 100046964-LINESPACING;
	distance_CN 0.0;
	distance_BC 2.948634;
	distance_AB 3.887301;
	distance_AC 5.500000;
	distance_BN 0.0;
};

object underground_line {
	phases ACB;
	from node100046964100046695;
	name 100046964;
	longitude 626.474808334;
	to node100047624100046964;
	length 1888.18;
	latitude 154.821165506;
	configuration 100046964-LINECONFIG;
};

object overhead_line {
	phases B;
	from node100047624100046964;
	name 100047624;
	longitude 626.793667135;
	to nodeD11398100047624;
	length 19.2695;
	latitude 155.082803907;
	configuration 100041200-LINECONFIG;
};

object fuse {
	phases B;
	from nodeD11398100047624;
	name D11398;
	current_limit 9999.0 A;
	longitude 626.793667135;
	to node100047530D11398;
	latitude 155.082803907;
};

object overhead_line {
	phases BN;
	from node100047530D11398;
	name 100047530;
	longitude 628.293853091;
	to node100044049100047530;
	length 78.8907;
	latitude 155.361540192;
	configuration 100041200-LINECONFIG;
};

object overhead_line {
	phases BN;
	from node100044049100047530;
	name 100044049;
	longitude 631.171211438;
	to node100032177100044049;
	length 191.695;
	latitude 152.15772756;
	configuration 100041200-LINECONFIG;
};

object overhead_line {
	phases B;
	from node100032177100044049;
	name 100032177;
	to nodeT99300187100032177;
	longitude 641.762381592;
	length 702.919;
	latitude 140.500877024;
	configuration 100041200-LINECONFIG;
};

object overhead_line {
	phases B;
	from node100044049100047530;
	name 100045547;
	longitude 628.313541818;
	to nodeT99290179100045547;
	length 56.4687;
	latitude 156.876925009;
	configuration 100041200-LINECONFIG;
};

object overhead_line {
	phases ACBN;
	from node100047624100046964;
	name 100047632;
	to node100046784100047632;
	longitude 624.558308123;
	length 100.957;
	latitude 154.431215187;
	configuration 100037370-LINECONFIG;
};

object line_configuration {
	name 100046784-LINECONFIG;
	spacing 100091342-LINESPACING;
	conductor_N 100039163_conductor_N;
	conductor_A 100039163_conductor_N;
	conductor_C 100039163_conductor_N;
	conductor_B 100039163_conductor_N;
};

object overhead_line {
	phases ACBN;
	from node100046784100047632;
	name 100046784;
	longitude 621.967598962;
	to node100047678100046784;
	length 136.473;
	latitude 153.904098459;
	configuration 100046784-LINECONFIG;
};

object overhead_line {
	phases ACBN;
	from node100047678100046784;
	name 100047678;
	longitude 614.460637046;
	to node100041990100047678;
	length 396.36;
	latitude 152.215498652;
	configuration 100046784-LINECONFIG;
};

object overhead_line {
	phases ACBN;
	from node100041990100047678;
	name 100041990;
	longitude 613.844826903;
	to node100043793100041990;
	length 32.5142;
	latitude 152.07698564;
	configuration 100046784-LINECONFIG;
};

object overhead_line {
	phases ACBN;
	from node100043793100041990;
	name 100043793;
	longitude 577.464703347;
	to node100032308100043793;
	length 2282.58;
	latitude 153.703430536;
	configuration 100046784-LINECONFIG;
};

object overhead_line {
	phases ACBN;
	from node100032308100043793;
	name 100032308;
	longitude 564.077817031;
	to node100032490100032308;
	length 698.282;
	latitude 153.047459636;
	configuration 100046784-LINECONFIG;
};

object overhead_line {
	phases ACBN;
	from node100032490100032308;
	name 100032490;
	longitude 556.923380047;
	to node100035457100032490;
	length 373.537;
	latitude 152.489489071;
	configuration 100046784-LINECONFIG;
};

object overhead_line {
	phases ACBN;
	from node100035457100032490;
	name 100035457;
	longitude 548.295546935;
	to node100036852100035457;
	length 450.594;
	latitude 151.756899585;
	configuration 100046784-LINECONFIG;
};

object overhead_line {
	phases ACBN;
	from node100036852100035457;
	name 100036852;
	to node100037727100036852;
	longitude 539.840214988;
	length 555.972;
	latitude 157.561308839;
	configuration 100046784-LINECONFIG;
};

object overhead_line {
	phases ACBN;
	from node100037727100036852;
	name 100037727;
	longitude 516.753895357;
	to node100035375100037727;
	length 1203.99;
	latitude 156.757497027;
	configuration 100046784-LINECONFIG;
};

object overhead_line {
	phases ACBN;
	from node100035375100037727;
	name 100035375;
	longitude 499.535099835;
	to node100034262100035375;
	length 898.26;
	latitude 155.840611822;
	configuration 100046784-LINECONFIG;
};

object overhead_line {
	phases ACBN;
	from node100034262100035375;
	name 100034262;
	longitude 481.534611724;
	to node100039163100034262;
	length 939.095;
	latitude 154.843674359;
	configuration 100046784-LINECONFIG;
};

object overhead_line_conductor {
	diameter 1.004;
	name 100039163_conductor_N;
	geometric_mean_radius 0.0235;
	resistance 0.342;
};

object overhead_line {
	phases ACBN;
	from node100039163100034262;
	name 100039163;
	longitude 464.928193465;
	to node100035463100039163;
	length 866.466;
	latitude 153.980952917;
	configuration 100046784-LINECONFIG;
};

object overhead_line {
	phases ACBN;
	from node100035463100039163;
	name 100035463;
	longitude 456.622515048;
	to node100034273100035463;
	length 599.588;
	latitude 147.188742433;
	configuration 100091355-LINECONFIG;
};

object overhead_line {
	phases ACBN;
	from node100034273100035463;
	name 100034273;
	longitude 449.887293641;
	to node100039582100034273;
	length 351.196;
	latitude 146.974493852;
	configuration 100091355-LINECONFIG;
};

object overhead_line {
	phases ACBN;
	from node100039582100034273;
	name 100039582;
	longitude 449.619976079;
	to node100042979100039582;
	length 13.94;
	latitude 146.964636823;
	configuration 100091355-LINECONFIG;
};

object overhead_line {
	phases ACB;
	from node100042979100039582;
	name 100042979;
	to nodeD10257100042979;
	longitude 449.249491741;
	length 19.3199;
	latitude 146.950980798;
	configuration 100091355-LINECONFIG;
};

object fuse {
	phases ACB;
	from nodeD10257100042979;
	name D10257;
	current_limit 9999.0 A;
	longitude 449.249491741;
	to node100091355D10257;
	latitude 146.950980798;
};

object line_configuration {
	name 100091355-LINECONFIG;
	conductor_A 100043055_conductor_N;
	spacing 100091342-LINESPACING;
	conductor_N 100043055_conductor_N;
	conductor_C 100043055_conductor_N;
	conductor_B 100043055_conductor_N;
};

object overhead_line {
	phases ACBN;
	from node100091355D10257;
	name 100091355;
	longitude 443.517503258;
	to node100091331100091355;
	length 301.021;
	latitude 147.929157597;
	configuration 100091355-LINECONFIG;
};

object line_configuration {
	name 100091331-LINECONFIG;
	spacing 100032077-LINESPACING;
	conductor_N 100094845_conductor_N;
	conductor_C 100045593_conductor_N;
};

object overhead_line {
	phases CN;
	from node100091331100091355;
	name 100091331;
	longitude 440.958476837;
	to node100091354100091331;
	length 135.303;
	latitude 147.322445672;
	configuration 100091331-LINECONFIG;
};

object overhead_line {
	phases CN;
	from node100091354100091331;
	name 100091354;
	longitude 440.067752767;
	to node100044338100091354;
	length 414.497;
	latitude 136.267267965;
	configuration 100101693-LINECONFIG;
};

object overhead_line {
	phases C;
	from node100044338100091354;
	name 100044338;
	longitude 440.060862415;
	to nodeD11006100044338;
	length 37.6741;
	latitude 135.256130586;
	configuration 100101693-LINECONFIG;
};

object fuse {
	phases C;
	from nodeD11006100044338;
	name D11006;
	current_limit 9999.0 A;
	longitude 440.060862415;
	to node100035764D11006;
	latitude 135.256130586;
};

object overhead_line {
	phases CN;
	from node100035764D11006;
	name 100035764;
	longitude 440.060862415;
	to node100032013100035764;
	length 698.747;
	latitude 116.501574972;
	configuration 100101693-LINECONFIG;
};

object line_spacing {
	distance_AN 6.009252;
	name 100091342-LINESPACING;
	distance_CN 5.449261;
	distance_BC 2.948634;
	distance_AB 3.887301;
	distance_AC 5.500000;
	distance_BN 7.000000;
};

object overhead_line {
	phases ACBN;
	from node100091331100091355;
	name 100091342;
	longitude 443.430239906;
	to node100091343100091342;
	length 79.0732;
	latitude 150.04798611;
	configuration 100044450-LINECONFIG;
};

object overhead_line {
	phases ACBN;
	from node100091343100091342;
	name 100091343;
	longitude 439.306984133;
	to node100091344100091343;
	length 215.02;
	latitude 149.894137946;
	configuration 100044450-LINECONFIG;
};

object overhead_line {
	phases ACBN;
	from node100091344100091343;
	name 100091344;
	longitude 434.806236588;
	to node100091345100091344;
	length 234.699;
	latitude 149.733161952;
	configuration 100044450-LINECONFIG;
};

object overhead_line {
	phases ACBN;
	from node100091345100091344;
	name 100091345;
	longitude 430.586782838;
	to node100091346100091345;
	length 220.03;
	latitude 149.5827163;
	configuration 100044450-LINECONFIG;
};

object overhead_line {
	phases ACBN;
	from node100091346100091345;
	name 100091346;
	longitude 426.02351281;
	to node100091347100091346;
	length 237.962;
	latitude 149.416784763;
	configuration 100044450-LINECONFIG;
};

object overhead_line {
	phases CN;
	from node100091347100091346;
	name 100091347;
	longitude 426.0880983;
	to node100091356100091347;
	length 64.7891;
	latitude 147.680177542;
	configuration 100038549-LINECONFIG;
};

object overhead_line {
	phases C;
	from node100091356100091347;
	name 100091356;
	to nodeT99180081100091356;
	longitude 426.251897834;
	length 148.046;
	latitude 143.713203384;
	configuration 100101693-LINECONFIG;
};

object overhead_line {
	phases ACBN;
	from node100091347100091346;
	name 100091348;
	longitude 422.190952623;
	to node100091349100091348;
	length 199.838;
	latitude 149.298854117;
	configuration 100044450-LINECONFIG;
};

object overhead_line {
	phases ACBN;
	from node100091349100091348;
	name 100091349;
	longitude 418.729703381;
	to node100091321100091349;
	length 180.475;
	latitude 149.195437875;
	configuration 100044450-LINECONFIG;
};

object overhead_line {
	phases ACBN;
	from node100091321100091349;
	name 100091321;
	longitude 414.914184668;
	to node100091322100091321;
	length 198.948;
	latitude 149.080202044;
	configuration 100044450-LINECONFIG;
};

object overhead_line {
	phases ACBN;
	from node100091322100091321;
	name 100091322;
	longitude 412.420953206;
	to node100091357100091322;
	length 130;
	latitude 149.007117085;
	configuration 100044450-LINECONFIG;
};

object overhead_line {
	phases A;
	from node100091357100091322;
	name 100091357;
	longitude 409.065973448;
	to nodeT99170079100091357;
	length 768.239;
	latitude 167.115745609;
	configuration 100043055-LINECONFIG;
};

object overhead_line {
	phases ACBN;
	from node100091357100091322;
	name 100091358;
	longitude 408.393489134;
	to nodeC204100091358;
	length 210;
	latitude 148.884343895;
	configuration 100044450-LINECONFIG;
};

object capacitor {
	control MANUAL;
	phases ABCN;
	capacitor_A 50000.0;
	control_level BANK;
	name C204;
	parent nodeC204100091358;
	capacitor_B 50000.0;
	phases_connected ABCN;
	longitude 408.393489134;
	switchC CLOSED;
	nominal_voltage 7200.0;
	capacitor_C 50000.0;
	latitude 148.884343895;
	switchB CLOSED;
	switchA CLOSED;
	pt_phase A;
};

object overhead_line {
	phases ACBN;
	from nodeC204100091358;
	name 100091359;
	longitude 407.818139464;
	to node100091324100091359;
	length 29.9999;
	latitude 148.866800435;
	configuration 100044450-LINECONFIG;
};

object overhead_line {
	phases ACBN;
	from node100091324100091359;
	name 100091324;
	longitude 403.407105827;
	to node100091325100091324;
	length 230;
	latitude 148.732792478;
	configuration 100044450-LINECONFIG;
};

object overhead_line {
	phases ACBN;
	from node100091325100091324;
	name 100091325;
	longitude 398.900246533;
	to node100091326100091325;
	length 235;
	latitude 148.591671453;
	configuration 100044450-LINECONFIG;
};

object overhead_line {
	phases ACBN;
	from node100091326100091325;
	name 100091326;
	longitude 394.585080699;
	to node100091327100091326;
	length 225;
	latitude 148.462168552;
	configuration 100044450-LINECONFIG;
};

object overhead_line {
	phases ACBN;
	from node100091327100091326;
	name 100091327;
	to node100091328100091327;
	longitude 390.445930869;
	length 215.826;
	latitude 148.332852406;
	configuration 100044450-LINECONFIG;
};

object overhead_line {
	phases ACBN;
	from node100091328100091327;
	name 100091328;
	longitude 386.418421134;
	to node100091329100091328;
	length 210.006;
	latitude 148.206408006;
	configuration 100044450-LINECONFIG;
};

object overhead_line {
	phases ACBN;
	from node100091329100091328;
	name 100091329;
	longitude 382.009102767;
	to node100091330100091329;
	length 229.908;
	latitude 148.07534064;
	configuration 100044450-LINECONFIG;
};

object overhead_line {
	phases ACBN;
	from node100091330100091329;
	name 100091330;
	longitude 377.978209325;
	to node100091332100091330;
	length 210.178;
	latitude 147.95333084;
	configuration 100044450-LINECONFIG;
};

object overhead_line {
	phases ACBN;
	from node100091332100091330;
	name 100091332;
	longitude 373.571615486;
	to node100091333100091332;
	length 229.773;
	latitude 147.814544272;
	configuration 100044450-LINECONFIG;
};

object overhead_line {
	phases ACBN;
	from node100091333100091332;
	name 100091333;
	longitude 369.542410384;
	to node100091334100091333;
	length 210.091;
	latitude 147.692093809;
	configuration 100044450-LINECONFIG;
};

object overhead_line {
	phases ACBN;
	from node100091334100091333;
	name 100091334;
	longitude 365.215413283;
	to node100091335100091334;
	length 225.619;
	latitude 147.559488148;
	configuration 100044450-LINECONFIG;
};

object overhead_line {
	phases BN;
	from node100091335100091334;
	name 100091335;
	longitude 365.232235811;
	to node100091360100091335;
	length 62.7852;
	latitude 145.874482574;
	configuration 100041200-LINECONFIG;
};

object overhead_line {
	phases B;
	from node100091360100091335;
	name 100091360;
	to nodeT99180312100091360;
	longitude 365.162237562;
	length 281.606;
	latitude 138.31675152;
	configuration 100041200-LINECONFIG;
};

object overhead_line {
	phases ACBN;
	from node100091335100091334;
	name 100091336;
	longitude 361.189667994;
	to node100091337100091336;
	length 209.909;
	latitude 147.439033016;
	configuration 100044450-LINECONFIG;
};

object overhead_line {
	phases ACBN;
	from node100091337100091336;
	name 100091337;
	longitude 357.523979606;
	to node100091338100091337;
	length 191.131;
	latitude 147.334152262;
	configuration 100044450-LINECONFIG;
};

object overhead_line {
	phases ACBN;
	from node100091338100091337;
	name 100091338;
	longitude 353.514471429;
	to node100091339100091338;
	length 209.063;
	latitude 147.213000894;
	configuration 100044450-LINECONFIG;
};

object overhead_line {
	phases ACBN;
	from node100091339100091338;
	name 100091339;
	longitude 349.871802789;
	to node100091340100091339;
	length 189.932;
	latitude 147.106766962;
	configuration 100044450-LINECONFIG;
};

object overhead_line {
	phases ACBN;
	from node100091340100091339;
	name 100091340;
	longitude 346.028104466;
	to node100091341100091340;
	length 200.413;
	latitude 146.996717661;
	configuration 100044450-LINECONFIG;
};

object overhead_line {
	phases ACBN;
	from node100091341100091340;
	name 100091341;
	to node100096873100091341;
	longitude 342.293555879;
	length 194.726;
	latitude 146.884599326;
	configuration 100044450-LINECONFIG;
};

object overhead_line {
	phases ACBN;
	from node100096873100091341;
	name 100096873;
	longitude 338.398132497;
	to node100097837100096873;
	length 203.257;
	latitude 146.648749469;
	configuration 100044450-LINECONFIG;
};

object overhead_line {
	phases CN;
	from node100097837100096873;
	name 100097837;
	longitude 337.332932067;
	to node100033449100097837;
	length 2441.04;
	latitude 81.3659781203;
	configuration 100101693-LINECONFIG;
};

object overhead_line {
	phases C;
	from node100033449100097837;
	name 100033449;
	longitude 331.780817483;
	to nodeT99070043100033449;
	length 289.431;
	latitude 81.3414608384;
	configuration 100101693-LINECONFIG;
};

object overhead_line {
	phases CN;
	from node100033449100097837;
	name 100034120;
	longitude 343.753461667;
	to node100045426100034120;
	length 406.264;
	latitude 75.185364675;
	configuration 100101693-LINECONFIG;
};

object overhead_line {
	phases CN;
	from node100045426100034120;
	name 100045426;
	longitude 343.753461667;
	to node100041758100045426;
	length 326.358;
	latitude 66.4258230108;
	configuration 100101693-LINECONFIG;
};

object overhead_line {
	phases C;
	from node100041758100045426;
	name 100041758;
	to nodeT99180080100041758;
	longitude 348.88419229;
	length 530.387;
	latitude 78.7189319992;
	configuration 100032077-LINECONFIG;
};

object overhead_line {
	phases CN;
	from node100041758100045426;
	name 100045680;
	longitude 343.753461667;
	to node100037941100045680;
	length 1892.69;
	latitude 15.6254710745;
	configuration 100101693-LINECONFIG;
};

object overhead_line {
	phases C;
	from node100037941100045680;
	name 100037941;
	longitude 334.926256775;
	to nodeSW368-A-A100037941;
	length 460.248;
	latitude 15.3834796043;
	configuration 100101693-LINECONFIG;
};

object overhead_line {
	phases CN;
	from node100037941100045680;
	name 100101694;
	longitude 382.807983184;
	to node100101692100101694;
	length 2035.96;
	latitude 15.1982025795;
	configuration 100101693-LINECONFIG;
};

object line_configuration {
	name 100101693-LINECONFIG;
	spacing 100032077-LINESPACING;
	conductor_N 100043055_conductor_N;
	conductor_C 100043055_conductor_N;
};

object overhead_line {
	phases C;
	from node100101692100101694;
	name 100101693;
	to nodeT75130012100101693;
	longitude 381.245157663;
	length 317.056;
	latitude 6.97408005853;
	configuration 100101693-LINECONFIG;
};

object overhead_line {
	phases ACBN;
	from node100097837100096873;
	name 100097838;
	longitude 338.871280153;
	to node100046109100097838;
	length 1621.6;
	latitude 190.143420367;
	configuration 100037370-LINECONFIG;
};

object overhead_line {
	phases ACBN;
	from node100046109100097838;
	name 100046109;
	longitude 338.847170361;
	to node100043855100046109;
	length 139.495;
	latitude 193.88735705;
	configuration 100037370-LINECONFIG;
};

object overhead_line {
	phases ACBN;
	from node100043855100046109;
	name 100043855;
	longitude 338.858649208;
	to node100043856100043855;
	length 200.755;
	latitude 199.275639198;
	configuration 100037370-LINECONFIG;
};

object overhead_line {
	phases BN;
	from node100043856100043855;
	name 100043856;
	longitude 338.867512413;
	to node100096525100043856;
	length 155.041;
	latitude 203.436962735;
	configuration 100037370-LINECONFIG;
};

object overhead_line {
	phases B;
	from node100096525100043856;
	name 100096525;
	longitude 338.877859065;
	to nodeD14678100096525;
	length 30;
	latitude 204.242040871;
	configuration 100032105-LINECONFIG;
};

object fuse {
	phases B;
	from nodeD14678100096525;
	name D14678;
	current_limit 9999.0 A;
	longitude 338.877859065;
	to node100096526D14678;
	latitude 204.242040871;
};

object overhead_line {
	phases BN;
	from node100096526D14678;
	name 100096526;
	longitude 335.538591886;
	to node100032588100096526;
	length 1934.55;
	latitude 255.923580047;
	configuration 100032105-LINECONFIG;
};

object overhead_line {
	phases B;
	from node100032588100096526;
	name 100032588;
	longitude 362.932840433;
	to nodeT99170078100032588;
	length 1811.15;
	latitude 246.051879851;
	configuration 100041200-LINECONFIG;
};

object overhead_line {
	phases BN;
	from node100032588100096526;
	name 100038476;
	longitude 335.504794622;
	to node100032105100038476;
	length 226.27;
	latitude 261.996540892;
	configuration 100032105-LINECONFIG;
};

object line_configuration {
	name 100032105-LINECONFIG;
	spacing 100041200-LINESPACING;
	conductor_N 100094845_conductor_N;
	conductor_B 100045593_conductor_N;
};

object overhead_line {
	phases BN;
	from node100032105100038476;
	name 100032105;
	longitude 335.249346964;
	to node100033638100032105;
	length 1710.34;
	latitude 307.901123748;
	configuration 100032105-LINECONFIG;
};

object line_configuration {
	name 100033638-LINECONFIG;
	spacing 100041200-LINESPACING;
	conductor_N 100045593_conductor_N;
	conductor_B 100045593_conductor_N;
};

object overhead_line {
	phases BN;
	from node100033638100032105;
	name 100033638;
	longitude 328.61736844;
	to node100035416100033638;
	length 2295.89;
	latitude 366.210288447;
	configuration 100033638-LINECONFIG;
};

object overhead_line {
	phases BN;
	from node100035416100033638;
	name 100035416;
	to node100037929100035416;
	longitude 285.288483448;
	length 2265.63;
	latitude 362.384784238;
	configuration 100034925-LINECONFIG;
};

object overhead_line {
	phases BN;
	from node100037929100035416;
	name 100037929;
	longitude 278.334495412;
	to node100032334100037929;
	length 362.701;
	latitude 362.068380853;
	configuration 100034925-LINECONFIG;
};

object overhead_line {
	phases B;
	from node100032334100037929;
	name 100032334;
	longitude 235.86175979;
	to nodeSW218-A-A100032334;
	length 2214.23;
	latitude 361.541994743;
	configuration 100034925-LINECONFIG;
};

object overhead_line {
	phases B;
	from node100032334100037929;
	name 100034927;
	longitude 278.334495412;
	to nodeT99090050100034927;
	length 433.58;
	latitude 350.430983944;
	configuration 100034925-LINECONFIG;
};

object overhead_line {
	phases BN;
	from node100037929100035416;
	name 100041687;
	longitude 283.672094659;
	to node100041688100041687;
	length 367.893;
	latitude 371.996638211;
	configuration 100034925-LINECONFIG;
};

object overhead_line {
	phases B;
	from node100041688100041687;
	name 100041688;
	to nodeT99090051100041688;
	longitude 282.109518526;
	length 355.644;
	latitude 381.288476584;
	configuration 100034925-LINECONFIG;
};

object overhead_line {
	phases B;
	from node100035416100033638;
	name 100038788;
	longitude 347.154877831;
	to nodeT99160067100038788;
	length 988.926;
	latitude 360.571687855;
	configuration 100041200-LINECONFIG;
};

object overhead_line {
	phases B;
	from node100032105100038476;
	name 100045475;
	longitude 329.842954254;
	to nodeT99080049100045475;
	length 316.475;
	latitude 265.061858548;
	configuration 100034925-LINECONFIG;
};

object overhead_line {
	phases ACB;
	from node100043856100043855;
	name 100043857;
	longitude 334.908140475;
	to nodeT99080284100043857;
	length 206.029;
	latitude 199.439649108;
	configuration 100037370-LINECONFIG;
};

object overhead_line {
	phases ACBN;
	from node100097837100096873;
	name 100096928;
	to node100096988100096928;
	longitude 334.901130698;
	length 182.372;
	latitude 146.788441949;
	configuration 100044450-LINECONFIG;
};

object overhead_line {
	phases ACBN;
	from node100096988100096928;
	name 100096988;
	longitude 331.830773414;
	to node100096998100096988;
	length 160.083;
	latitude 146.710599663;
	configuration 100044450-LINECONFIG;
};

object overhead_line {
	phases ACBN;
	from node100096998100096988;
	name 100096998;
	longitude 328.625187263;
	to node100097003100096998;
	length 167.136;
	latitude 146.625839247;
	configuration 100044450-LINECONFIG;
};

object overhead_line {
	phases ACBN;
	from node100097003100096998;
	name 100097003;
	longitude 324.580984963;
	to node100097008100097003;
	length 210.886;
	latitude 146.487090336;
	configuration 100044450-LINECONFIG;
};

object overhead_line {
	phases ACBN;
	from node100097008100097003;
	name 100097008;
	longitude 320.740190306;
	to node100097013100097008;
	length 200.291;
	latitude 146.343677502;
	configuration 100044450-LINECONFIG;
};

object overhead_line {
	phases ACBN;
	from node100097013100097008;
	name 100097013;
	longitude 316.521895681;
	to node100097018100097013;
	length 219.941;
	latitude 146.22757669;
	configuration 100044450-LINECONFIG;
};

object overhead_line {
	phases ACBN;
	from node100097018100097013;
	name 100097018;
	longitude 312.683537526;
	to node100097023100097018;
	length 200.132;
	latitude 146.121156004;
	configuration 100044450-LINECONFIG;
};

object overhead_line {
	phases ACBN;
	from node100097023100097018;
	name 100097023;
	longitude 308.464164564;
	to node100096878100097023;
	length 220;
	latitude 146.000750016;
	configuration 100044450-LINECONFIG;
};

object overhead_line {
	phases ACBN;
	from node100096878100097023;
	name 100096878;
	to node100096883100096878;
	longitude 304.632025875;
	length 199.806;
	latitude 145.896986515;
	configuration 100044450-LINECONFIG;
};

object overhead_line {
	phases ACBN;
	from node100096883100096878;
	name 100096883;
	longitude 300.418011815;
	to node100096888100096883;
	length 219.721;
	latitude 145.77642488;
	configuration 100044450-LINECONFIG;
};

object overhead_line {
	phases ACB;
	from node100096888100096883;
	name 100096888;
	longitude 296.572330102;
	to nodeR254100096888;
	length 200.511;
	latitude 145.673508323;
	configuration 100044450-LINECONFIG;
};

object regulator_configuration {
	Control OUTPUT_VOLTAGE;
	Type A;
	raise_taps 16.0;
	name R254-CONFIG;
	band_center 125.0004;
	current_transducer_ratio 150;
	tap_pos_B 1;
	tap_pos_C 1;
	time_delay 30.0;
	connect_type WYE_WYE;
	regulation 0.1;
	CT_phase ABC;
	power_transducer_ratio 60.0;
	lower_taps 16.0;
	tap_pos_A 1;
	control_level INDIVIDUAL;
	PT_phase ABC;
	band_width 2.000004;
};

object regulator {
	phases ACB;
	from nodeR254100096888;
	name R254;
	longitude 296.572330102;
	to node100096898R254;
	latitude 145.673508323;
	configuration R254-CONFIG;
};

object overhead_line {
	phases ACBN;
	from node100096898R254;
	name 100096898;
	longitude 291.975594156;
	to node100096903100096898;
	length 239.748;
	latitude 145.46858928;
	configuration 100044450-LINECONFIG;
};

object overhead_line {
	phases ACBN;
	from node100096903100096898;
	name 100096903;
	longitude 288.329146066;
	to node100096908100096903;
	length 190.237;
	latitude 145.266669796;
	configuration 100044450-LINECONFIG;
};

object overhead_line {
	phases ACBN;
	from node100096908100096903;
	name 100096908;
	longitude 283.829463979;
	to node100097027100096908;
	length 234.759;
	latitude 145.011918389;
	configuration 100044450-LINECONFIG;
};

object overhead_line {
	phases C;
	from node100097027100096908;
	name 100097027;
	longitude 283.825443337;
	to nodeT99070042100097027;
	length 222.527;
	latitude 139.039248051;
	configuration 100038549-LINECONFIG;
};

object overhead_line {
	phases ACBN;
	from node100097027100096908;
	name 100096913;
	longitude 280.020859032;
	to node100096918100096913;
	length 198.545;
	latitude 145.042451135;
	configuration 100044450-LINECONFIG;
};

object overhead_line {
	phases ACBN;
	from node100096918100096913;
	name 100096918;
	longitude 276.226533568;
	to node100096923100096918;
	length 197.798;
	latitude 145.055817205;
	configuration 100044450-LINECONFIG;
};

object overhead_line {
	phases ACBN;
	from node100096923100096918;
	name 100096923;
	longitude 272.574371812;
	to node100096933100096923;
	length 190.387;
	latitude 145.039235351;
	configuration 100044450-LINECONFIG;
};

object overhead_line {
	phases ACBN;
	from node100096933100096923;
	name 100096933;
	longitude 268.357105177;
	to node100096938100096933;
	length 219.903;
	latitude 144.903397533;
	configuration 100044450-LINECONFIG;