clock {
timezone PST+8PDT;
stoptime '2000-01-02 00:00:00';
starttime '2000-01-01 00:00:00';
};

#include "schedules.glm";
#set minimum_timestep=60;
#set profiler=1;
#set relax_naming_rules=1;
module generators;
module tape;
module climate;
module residential {
implicit_enduses NONE;
};

module powerflow {
solver_method NR;
NR_iteration_limit 50;
};

object climate {
name Climate;
interpolate QUADRATIC;
tmyfile climate.tmy2;
};

object node {
phases "ABCN";
name nodeREG46602XFMR47590;
nominal_voltage 138000.0;
bustype SWING;
};

object overhead_line_conductor {
geometric_mean_radius 0.031300;
resistance 0.185900;
name davidPinneyConductor;
};

object transformer_configuration {
powerC_rating 50 kVA;
name XFMR47590transformer_configuration101;
shunt_impedance 10000+10000j;
secondary_voltage 14400.0;
connect_type SINGLE_PHASE_CENTER_TAPPED;
impedance 0.00033+0.0022j;
primary_voltage 79674.3;
powerB_rating 50 kVA;
powerA_rating 50 kVA;
};

object regulator {
phases "ABC";
from nodeREG46602XFMR47590;
name REG46602;
to nodeOHx2REG46602;
configuration REGx7105regulator_configuration297601;
};

object line_configuration {
name OHx13line_configuration401;
spacing OHx221170line_configuration524201line_spacing524202;
conductor_N OHx13line_configuration401ohlc404;
conductor_A OHx13line_configuration401ohlc404;
conductor_C OHx13line_configuration401ohlc404;
conductor_B OHx13line_configuration401ohlc404;
};

object overhead_line_conductor {
geometric_mean_radius 0.029;
resistance 0.216;
name OHx13line_configuration401ohlc404;
};


object overhead_line {
phases "ABCN";
from nodeOHx2REG46602;
name OHx13;
to nodeRECT2413OHx13;
length 64.9884;
configuration OHx13line_configuration401;
};

object fuse {
phases "ABCN";
from nodeRECT2413OHx13;
name RECT2413;
current_limit 9999.0 A;
to nodeOHx3648RECT2413;
};

object overhead_line {
phases "ABCN";
from nodeOHx3648RECT2413;
name OHx3648;
to nodeSWx301929xG9997-BOHx3648;
length 39.0635;
configuration OHx5575line_configuration13101;
};

object switch {
status CLOSED;
phases "ABCN";
from nodeSWx301929xG9997-BOHx3648;
name SWx301929xG9997-B;
to nodeSWx301929xG9997SWx301929xG9997-B;
};

object switch {
status CLOSED;
phases "ABCN";
from nodeSWx301929xG9997SWx301929xG9997-B;
name SWx301929xG9997;
to nodeOHx806SWx301929xG9997;
};

object overhead_line {
phases "ABCN";
from nodeOHx806SWx301929xG9997;
name OHx806;
to nodeOHx259106OHx806;
length 42.2397;
configuration OHx5575line_configuration13101;
};

object overhead_line {
phases "ABCN";
from nodeOHx259106OHx806;
name OHx259106;
to nodeOHx259107OHx259106;
length 14.3346;
configuration OHx5575line_configuration13101;
};

object overhead_line {
phases "ABCN";
from nodeOHx259107OHx259106;
name OHx259107;
to nodeOHx4717OHx259107;
length 165.54;
configuration OHx5575line_configuration13101;
};

object overhead_line {
phases 47N;
from nodeOHx4717OHx259107;
name OHx4717;
to nodeOHx1353OHx4717;
length 227.329;
configuration OHx5575line_configuration13101;
};

object overhead_line {
phases "ABCN";
from nodeOHx1353OHx4717;
name OHx1353;
to nodeOHx2820OHx1353;
length 170.797;
configuration OHx5575line_configuration13101;
};

object overhead_line {
phases "ABCN";
from nodeOHx2820OHx1353;
name OHx2820;
to nodeOHx1371OHx2820;
length 223.178;
configuration OHx5575line_configuration13101;
};

object overhead_line {
phases "ABCN";
from nodeOHx1371OHx2820;
name OHx1371;
to nodeOHx1142OHx1371;
length 203.069;
configuration OHx5575line_configuration13101;
};

object overhead_line {
phases "ABCN";
from nodeOHx1142OHx1371;
name OHx1142;
to nodeOHx185509OHx1142;
length 194.893;
configuration OHx5575line_configuration13101;
};

object overhead_line {
phases "BN";
from nodeOHx185509OHx1142;
name OHx185509;
to nodeFUSEx8110OHx185509;
length 10;
configuration OHx7959line_configuration130701;
};

object fuse {
phases "BN";
from nodeFUSEx8110OHx185509;
name FUSEx8110;
current_limit 9999.0 A;
to nodeOHx185510FUSEx8110;
};

object overhead_line {
phases N;
from nodeOHx185510FUSEx8110;
name OHx185510;
to nodeOTx381671OHx185510;
length 558.75;
configuration OHx7959line_configuration130701;
};

object transformer {
phases "BC";
from nodeOTx381671OHx185510;
name OTx381671;
to nodeUGSx189397OTx381671;
configuration OTx190050transformer_configuration130801;
};

object underground_line {
phases "BC";
from nodeUGSx189397OTx381671;
name UGSx189397;
to node0021354903002UGSx189397;
length 218.991;
configuration UGSx54540line_configuration262101;
};

object load {
phases "BCN";
name 0021354903002;
parent node0021354903002UGSx189397;
load_class R;
constant_power_C 100;
constant_power_B 100;
constant_power_A 100;
nominal_voltage 120;
};

object overhead_line {
phases "ABCN";
from nodeOHx185509OHx1142;
name OHx563-S7120;
to nodeOHx563OHx563-S7120;
length 10;
configuration OHx5575line_configuration13101;
};

object overhead_line {
phases "ABCN";
from nodeOHx563OHx563-S7120;
name OHx563;
to nodeOHx3072OHx563;
length 183.24;
configuration OHx5575line_configuration13101;
};

object overhead_line {
phases "ABCN";
from nodeOHx3072OHx563;
name OHx3072;
to nodeOHx2072OHx3072;
length 244.707;
configuration OHx5575line_configuration13101;
};

object overhead_line {
phases "ABCN";
from nodeOHx2072OHx3072;
name OHx2072;
to nodeOHx4676OHx2072;
length 257.828;
configuration OHx5575line_configuration13101;
};

object overhead_line {
phases "ABCN";
from nodeOHx4676OHx2072;
name OHx4676;
to nodeOHx4722OHx4676;
length 249.185;
configuration OHx5575line_configuration13101;
};

object overhead_line {
phases "ABCN";
from nodeOHx4722OHx4676;
name OHx4722;
to nodeOHx349OHx4722;
length 250.168;
configuration OHx5575line_configuration13101;
};

object overhead_line {
phases "ABCN";
from nodeOHx349OHx4722;
name OHx349;
to nodeOHx4627OHx349;
length 220.771;
configuration OHx5575line_configuration13101;
};

object overhead_line {
phases "ABCN";
from nodeOHx4627OHx349;
name OHx4627;
to nodeOHx3082OHx4627;
length 221.617;
configuration OHx5575line_configuration13101;
};

object overhead_line {
phases "ABCN";
from nodeOHx3082OHx4627;
name OHx3082;
to nodeOHx3868OHx3082;
length 155.125;
configuration OHx5575line_configuration13101;
};

object overhead_line {
phases "ABCN";
from nodeOHx3868OHx3082;
name OHx3868;
to nodeOHx2714OHx3868;
length 145.074;
configuration OHx5575line_configuration13101;
};

object overhead_line {
phases "ABCN";
from nodeOHx2714OHx3868;
name OHx2714;
to nodeOHx5652OHx2714;
length 235.168;
configuration OHx5575line_configuration13101;
};

object overhead_line {
phases "ABCN";
from nodeOHx5652OHx2714;
name OHx5652;
to nodeOHx1339OHx5652;
length 230.736;
configuration OHx5575line_configuration13101;
};

object overhead_line {
phases "ABCN";
from nodeOHx1339OHx5652;
name OHx1339;
to nodeOHx2464OHx1339;
length 147.682;
configuration OHx5575line_configuration13101;
};

object overhead_line {
phases "ABCN";
from nodeOHx2464OHx1339;
name OHx2464;
to nodeOHx2799OHx2464;
length 204.58;
configuration OHx5575line_configuration13101;
};

object overhead_line {
phases "ABCN";
from nodeOHx2799OHx2464;
name OHx2799;
to nodeOHx5631OHx2799;
length 265.51;
configuration OHx5575line_configuration13101;
};

object overhead_line {
phases "ABCN";
from nodeOHx5631OHx2799;
name OHx5631;
to nodeOHx3886OHx5631;
length 142.778;
configuration OHx5575line_configuration13101;
};

object overhead_line {
phases "ABCN";
from nodeOHx3886OHx5631;
name OHx3886;
to nodeOHx5653OHx3886;
length 142.309;
configuration OHx5575line_configuration13101;
};

object overhead_line {
phases "ABCN";
from nodeOHx5653OHx3886;
name OHx5653;
to nodeOHx4760OHx5653;
length 192.518;
configuration OHx5575line_configuration13101;
};

object overhead_line {
phases "ABCN";
from nodeOHx4760OHx5653;
name OHx4760;
to nodeOHx1416OHx4760;
length 178.748;
configuration OHx5575line_configuration13101;
};

object overhead_line {
phases "ABCN";
from nodeOHx1416OHx4760;
name OHx1416;
to nodeOHx3479OHx1416;
length 58.7328;
configuration OHx221346line_configuration300701;
};

object overhead_line {
phases "ABCN";
from nodeOHx3479OHx1416;
name OHx3479;
to nodeOHx772OHx3479;
length 47.0548;
configuration OHx221346line_configuration300701;
};

object overhead_line {
phases "ABCN";
from nodeOHx772OHx3479;
name OHx772;
to nodeOHx4302OHx772;
length 262.163;
configuration OHx221346line_configuration300701;
};

object overhead_line {
phases "ABCN";
from nodeOHx4302OHx772;
name OHx4302;
to nodeOHx1175OHx4302;
length 286.538;
configuration OHx221346line_configuration300701;
};

object overhead_line {
phases "ABCN";
from nodeOHx1175OHx4302;
name OHx1175;
to nodeOHx3054OHx1175;
length 249.001;
configuration OHx221346line_configuration300701;
};

object overhead_line {
phases "ABCN";
from nodeOHx3054OHx1175;
name OHx3054;
to nodeOHx1301OHx3054;
length 261.836;
configuration OHx221346line_configuration300701;
};

object overhead_line {
phases "ABCN";
from nodeOHx1301OHx3054;
name OHx1301;
to nodeOHx3895OHx1301;
length 266.244;
configuration OHx221346line_configuration300701;
};

object overhead_line {
phases "ABCN";
from nodeOHx3895OHx1301;
name OHx3895;
to nodeOHx2641OHx3895;
length 255.814;
configuration OHx221346line_configuration300701;
};

object overhead_line {
phases "ABCN";
from nodeOHx2641OHx3895;
name OHx2641;
to nodeOHx2132OHx2641;
length 268.046;
configuration OHx221346line_configuration300701;
};

object overhead_line {
phases "ABCN";
from nodeOHx2132OHx2641;
name OHx2132;
to nodeOHx1069OHx2132;
length 259.405;
configuration OHx221346line_configuration300701;
};

object overhead_line {
phases "ABCN";
from nodeOHx1069OHx2132;
name OHx1069;
to nodeOHx3910OHx1069;
length 211.172;
configuration OHx221346line_configuration300701;
};

object overhead_line {
phases "ABC";
from nodeOHx3910OHx1069;
name OHx3910;
to nodeUGx431107OHx3910;
length 164.82;
configuration OHx221346line_configuration300701;
};

object underground_line {
phases "ABC";
from nodeUGx431107OHx3910;
name UGx431107;
to nodeSWx18903xG3041-BUGx431107;
length 10;
configuration UGSx54540line_configuration262101;
};

object switch {
status CLOSED;
phases "ABCN";
from nodeSWx18903xG3041-BUGx431107;
name SWx18903xG3041-B;
to nodeSWx18903xG3041SWx18903xG3041-B;
};

object switch {
status CLOSED;
phases "ABC";
from nodeSWx18903xG3041SWx18903xG3041-B;
name SWx18903xG3041;
to nodeUGx431109SWx18903xG3041;
};

object underground_line {
phases "ABC";
from nodeUGx431109SWx18903xG3041;
name UGx431109;
to nodeSWx18902xG3042-BUGx431109;
length 298.489;
configuration UGSx54540line_configuration262101;
};

object switch {
status CLOSED;
phases "ABCN";
from nodeSWx18902xG3042-BUGx431109;
name SWx18902xG3042-B;
to nodeSWx18902xG3042SWx18902xG3042-B;
};

object switch {
status CLOSED;
phases "ABC";
from nodeSWx18902xG3042SWx18902xG3042-B;
name SWx18902xG3042;
to nodeUGx431110SWx18902xG3042;
};

object underground_line {
phases "ABC";
from nodeUGx431110SWx18902xG3042;
name UGx431110;
to nodeOHx4000UGx431110;
length 10;
configuration UGSx54540line_configuration262101;
};

object overhead_line {
phases "ABCN";
from nodeOHx4000UGx431110;
name OHx4000;
to nodeOHx5564OHx4000;
length 85.9351;
configuration OHx221346line_configuration300701;
};

object overhead_line {
phases "ABCN";
from nodeOHx5564OHx4000;
name OHx5564;
to nodeOHx619OHx5564;
length 87.0456;
configuration OHx221346line_configuration300701;
};

object overhead_line {
phases "ABCN";
from nodeOHx619OHx5564;
name OHx619;
to nodeOHx4365OHx619;
length 222.499;
configuration OHx221346line_configuration300701;
};

object overhead_line {
phases "ABCN";
from nodeOHx4365OHx619;
name OHx4365;
to nodeOHx3135OHx4365;
length 74.8134;
configuration OHx221346line_configuration300701;
};

object overhead_line {
phases "ABCN";
from nodeOHx3135OHx4365;
name OHx3135;
to nodeOHx3024OHx3135;
length 103.958;
configuration OHx221346line_configuration300701;
};

object overhead_line {
phases "ABCN";
from nodeOHx3024OHx3135;
name OHx3024;
to nodeOHx5509OHx3024;
length 83.9875;
configuration OHx221346line_configuration300701;
};

object overhead_line {
phases "ABCN";
from nodeOHx5509OHx3024;
name OHx5509;
to nodeOHx665OHx5509;
length 283.784;
configuration OHx221346line_configuration300701;
};

object overhead_line {
phases "ABCN";
from nodeOHx665OHx5509;
name OHx665;
to nodeOHx4943OHx665;
length 290.069;
configuration OHx221346line_configuration300701;
};

object overhead_line {
phases "ABCN";
from nodeOHx4943OHx665;
name OHx4943;
to nodeOHx5792OHx4943;
length 284.211;
configuration OHx221346line_configuration300701;
};

object overhead_line {
phases "ABCN";
from nodeOHx5792OHx4943;
name OHx5792;
to nodeOHx6092OHx5792;
length 268.495;
configuration OHx221346line_configuration300701;
};

object overhead_line {
phases "ABCN";
from nodeOHx6092OHx5792;
name OHx6092;
to nodeOHx4605OHx6092;
length 286.058;
configuration OHx221346line_configuration300701;
};

object overhead_line {
phases "ABCN";
from nodeOHx4605OHx6092;
name OHx4605;
to nodeOHx1018OHx4605;
length 274.171;
configuration OHx221346line_configuration300701;
};

object overhead_line {
phases "ABCN";
from nodeOHx1018OHx4605;
name OHx1018;
to nodeOHx3404OHx1018;
length 272.215;
configuration OHx221346line_configuration300701;
};

object overhead_line {
phases "ABCN";
from nodeOHx3404OHx1018;
name OHx3404;
to nodeOHx3700OHx3404;
length 268.825;
configuration OHx221346line_configuration300701;
};

object overhead_line {
phases "ABCN";
from nodeOHx3700OHx3404;
name OHx3700;
to nodeOHx191OHx3700;
length 42.3416;
configuration OHx5575line_configuration13101;
};

object overhead_line {
phases "ABCN";
from nodeOHx191OHx3700;
name OHx191;
to nodeOHx5463OHx191;
length 50.7207;
configuration OHx5575line_configuration13101;
};

object overhead_line {
phases "ABCN";
from nodeOHx5463OHx191;
name OHx5463;
to nodeOHx5593OHx5463;
length 258.824;
configuration OHx5575line_configuration13101;
};

object overhead_line {
phases "ABCN";
from nodeOHx5593OHx5463;
name OHx5593;
to nodeOHx4059OHx5593;
length 229.416;
configuration OHx5575line_configuration13101;
};

object overhead_line {
phases "ABCN";
from nodeOHx4059OHx5593;
name OHx4059;
to nodeOHx1943OHx4059;
length 282.36;
configuration OHx5575line_configuration13101;
};

object overhead_line {
phases "ABCN";
from nodeOHx1943OHx4059;
name OHx1943;
to nodeOHx252593OHx1943;
length 271.468;
configuration OHx5575line_configuration13101;
};

object overhead_line {
phases "ABCN";
from nodeOHx252593OHx1943;
name OHx252593;
to nodeOHx252594OHx252593;
length 192.892;
configuration OHx5575line_configuration13101;
};

object overhead_line {
phases "ABCN";
from nodeOHx252594OHx252593;
name OHx252594;
to nodeOHx252595OHx252594;
length 13.0796;
configuration OHx5575line_configuration13101;
};

object overhead_line {
phases "ABCN";
from nodeOHx252595OHx252594;
name OHx252595;
to nodeOHx252596OHx252595;
length 247.795;
configuration OHx5575line_configuration13101;
};

object overhead_line {
phases "ABCN";
from nodeOHx252596OHx252595;
name OHx252596;
to nodeOHx1174OHx252596;
length 286.386;
configuration OHx5575line_configuration13101;
};

object overhead_line {
phases "ABCN";
from nodeOHx1174OHx252596;
name OHx1174;
to nodeOHx5050OHx1174;
length 252.128;
configuration OHx5575line_configuration13101;
};

object overhead_line {
phases "ABCN";
from nodeOHx5050OHx1174;
name OHx5050;
to nodeOHx2266OHx5050;
length 36.9047;
configuration OHx5575line_configuration13101;
};

object overhead_line {
phases "ABCN";
from nodeOHx2266OHx5050;
name OHx2266;
to nodeOHx1458OHx2266;
length 45.1792;
configuration OHx5575line_configuration13101;
};

object overhead_line {
phases "ABCN";
from nodeOHx1458OHx2266;
name OHx1458;
to nodeOHx4188OHx1458;
length 278.104;
configuration OHx5575line_configuration13101;
};

object overhead_line {
phases "ABCN";
from nodeOHx4188OHx1458;
name OHx4188;
to nodeOHx4151OHx4188;
length 282.979;
configuration OHx5575line_configuration13101;
};

object overhead_line {
phases "ABCN";
from nodeOHx4151OHx4188;
name OHx4151;
to nodeOHx3410OHx4151;
length 46.6335;
configuration OHx221346line_configuration300701;
};

object overhead_line {
phases "ABCN";
from nodeOHx3410OHx4151;
name OHx3410;
to nodeOHx3166OHx3410;
length 271.265;
configuration OHx221346line_configuration300701;
};

object overhead_line {
phases "ABCN";
from nodeOHx3166OHx3410;
name OHx3166;
to nodeOHx773OHx3166;
length 287.244;
configuration OHx221346line_configuration300701;
};

object overhead_line {
phases "ABCN";
from nodeOHx773OHx3166;
name OHx773;
to nodeOHx1102OHx773;
length 247.266;
configuration OHx221346line_configuration300701;
};

object overhead_line {
phases "ABCN";
from nodeOHx1102OHx773;
name OHx1102;
to nodeOHx438OHx1102;
length 236.365;
configuration OHx221346line_configuration300701;
};

object overhead_line {
phases "ABCN";
from nodeOHx438OHx1102;
name OHx438;
to nodeSWx18619xG3044-BOHx438;
length 283.226;
configuration OHx221346line_configuration300701;
};

object switch {
status CLOSED;
phases "ABCN";
from nodeSWx18619xG3044-BOHx438;
name SWx18619xG3044-B;
to nodeSWx18619xG3044SWx18619xG3044-B;
};

object switch {
status CLOSED;
phases "ABC";
from nodeSWx18619xG3044SWx18619xG3044-B;
name SWx18619xG3044;
to nodeUGx8492SWx18619xG3044;
};

object underground_line {
phases "ABC";
from nodeUGx8492SWx18619xG3044;
name UGx8492;
to nodeSWx18620xG3045-BUGx8492;
length 727.395;
configuration UGSx54540line_configuration262101;
};

object switch {
status CLOSED;
phases "ABCN";
from nodeSWx18620xG3045-BUGx8492;
name SWx18620xG3045-B;
to nodeSWx18620xG3045SWx18620xG3045-B;
};

object switch {
status CLOSED;
phases "ABCN";
from nodeSWx18620xG3045SWx18620xG3045-B;
name SWx18620xG3045;
to nodeOHx144SWx18620xG3045;
};

object overhead_line {
phases "ABCN";
from nodeOHx144SWx18620xG3045;
name OHx144;
to nodeOHx895OHx144;
length 271.553;
configuration OHx221346line_configuration300701;
};

object overhead_line {
phases "ABCN";
from nodeOHx895OHx144;
name OHx895;
to nodeOHx5096OHx895;
length 251.315;
configuration OHx221346line_configuration300701;
};

object overhead_line {
phases "ABCN";
from nodeOHx5096OHx895;
name OHx5096;
to nodeOHx722OHx5096;
length 225.612;
configuration OHx221346line_configuration300701;
};

object overhead_line {
phases "ABCN";
from nodeOHx722OHx5096;
name OHx722;
to nodeOHx2010OHx722;
length 195.19;
configuration OHx221346line_configuration300701;
};

object overhead_line {
phases "ABCN";
from nodeOHx2010OHx722;
name OHx2010;
to nodeOHx3988OHx2010;
length 186.677;
configuration OHx221346line_configuration300701;
};

object overhead_line {
phases "ABCN";
from nodeOHx3988OHx2010;
name OHx3988;
to nodeOHx52869OHx3988;
length 113.261;
configuration OHx221346line_configuration300701;
};

object overhead_line {
phases "AN";
from nodeOHx52869OHx3988;
name OHx52869;
to nodeFUSEx8112OHx52869;
length 10;
configuration OHx254819line_configuration150201;
};

object fuse {
phases "AN";
from nodeFUSEx8112OHx52869;
name FUSEx8112;
current_limit 9999.0 A;
to nodeOHx252885FUSEx8112;
};

object overhead_line {
phases "AN";
from nodeOHx252885FUSEx8112;
name OHx252885;
to nodeOHx252887OHx252885;
length 51.046;
configuration OHx254819line_configuration150201;
};

object overhead_line {
phases 14N;
from nodeOHx252887OHx252885;
name OHx252887;
to nodeOHx252888OHx252887;
length 148.965;
configuration OHx254819line_configuration150201;
};

object transformer {
phases "ABN";
from nodeOHx252888OHx252887;
name OTx188319;
to nodeOHSx56741OTx188319;
configuration OTx190050transformer_configuration130801;
};

object transformer {
phases "AB";
from nodeOHx252887OHx252885;
name OTx191397;
to nodeUGSx84201OTx191397;
configuration OTx190050transformer_configuration130801;
};

object underground_line {
phases "AB";
from nodeUGSx84201OTx191397;
name UGSx84201;
to node0021353681002UGSx84201;
length 17.6806;
configuration UGSx54540line_configuration262101;
};

object load {
phases "ABN";
name 0021353681002;
parent node0021353681002UGSx84201;
load_class R;
constant_power_C 100;
constant_power_B 2734.47;
constant_power_A 2734.47;
nominal_voltage 120;
};

object underground_line {
phases "AB";
from nodeUGSx84201OTx191397;
name UGSx84457;
to node0021353681001UGSx84457;
length 57.5874;
configuration UGSx54540line_configuration262101;
};

object load {
phases "ABN";
name 0021353681001;
parent node0021353681001UGSx84457;
load_class R;
constant_power_C 100;
constant_power_B 2800.77;
constant_power_A 2800.77;
nominal_voltage 120;
};

object overhead_line {
phases "ABCN";
from nodeOHx52869OHx3988;
name OHx252889;
to nodeOHx252891OHx252889;
length 293.477;
configuration OHx221346line_configuration300701;
};

object overhead_line {
phases "ABCN";
from nodeOHx252891OHx252889;
name OHx252891;
to nodeOHx252893OHx252891;
length 222.145;
configuration OHx221346line_configuration300701;
};

object overhead_line {
phases "ABCN";
from nodeOHx252893OHx252891;
name OHx252893;
to nodeOHx252895OHx252893;
length 241.699;
configuration OHx221346line_configuration300701;
};

object overhead_line {
phases "ABCN";
from nodeOHx252895OHx252893;
name OHx252895;
to nodeOHx253217OHx252895;
length 248.467;
configuration OHx221346line_configuration300701;
};

object overhead_line {
phases "ABCN";
from nodeOHx253217OHx252895;
name OHx253217;
to nodeOHx253221OHx253217;
length 202.514;
configuration OHx221346line_configuration300701;
};

object overhead_line {
phases "ABCN";
from nodeOHx253221OHx253217;
name OHx253221;
to nodeOHx127932OHx253221;
length 62.9987;
configuration OHx221346line_configuration300701;
};

object overhead_line {
phases "ABCN";
from nodeOHx127932OHx253221;
name OHx127932;
to nodeCAPx17732OHx127932;
length 10;
configuration OHx221339line_configuration516601;
};

object capacitor {
control VOLT;
phases "ABCN";
name CAPx17732;
parent nodeCAPx17732OHx127932;
pt_phase 7N;
time_delay 300.0;
nominal_voltage 2400;
voltage_set_low 2340.0;
control_level INDIVIDUAL;
phases_connected 7N;
dwell_time 0.0;
voltage_set_high 2350.0;
};

object overhead_line {
phases "ABCN";
from nodeOHx127932OHx253221;
name OHx253222;
to nodeOHx253223OHx253222;
length 255.293;
configuration OHx221346line_configuration300701;
};

object overhead_line {
phases 47N;
from nodeOHx253223OHx253222;
name OHx253223;
to nodeOHx253225OHx253223;
length 174.412;
configuration OHx221346line_configuration300701;
};

object overhead_line {
phases "ABCN";
from nodeOHx253225OHx253223;
name OHx253225;
to nodeOHx253226OHx253225;
length 146.281;
configuration OHx221346line_configuration300701;
};

object overhead_line {
phases "ABCN";
from nodeOHx253226OHx253225;
name OHx253226;
to nodeOHx5575OHx253226;
length 53.642;
configuration OHx221346line_configuration300701;
};

object line_configuration {
name OHx5575line_configuration13101;
spacing OHx221170line_configuration524201line_spacing524202;
conductor_N OHSx16064line_configuration239001ohlc239004;
conductor_A OHSx16064line_configuration239001ohlc239004;
conductor_C OHSx16064line_configuration239001ohlc239004;
conductor_B OHSx16064line_configuration239001ohlc239004;
};

object overhead_line {
phases "ABCN";
from nodeOHx5575OHx253226;
name OHx5575;
to nodeOHx5088OHx5575;
length 192.83;
configuration OHx5575line_configuration13101;
};

object overhead_line {
phases "ABCN";
from nodeOHx5088OHx5575;
name OHx5088;
to nodeRCLx651OHx5088;
length 196.481;
configuration OHx221339line_configuration516601;
};

object fuse {
phases "ABCN";
from nodeRCLx651OHx5088;
name RCLx651;
current_limit 9999.0 A;
to nodeOHx3523RCLx651;
};

object overhead_line {
phases "ABCN";
from nodeOHx3523RCLx651;
name OHx3523;
to nodeOHx3362OHx3523;
length 204.66;
configuration OHx221339line_configuration516601;
};

object overhead_line {
phases "ABCN";
from nodeOHx3362OHx3523;
name OHx3362;
to nodeOHx6091OHx3362;
length 201.792;
configuration OHx221339line_configuration516601;
};

object overhead_line {
phases "ABCN";
from nodeOHx6091OHx3362;
name OHx6091;
to nodeOHx4580OHx6091;
length 256.757;
configuration OHx221339line_configuration516601;
};

object overhead_line {
phases "ABCN";
from nodeOHx4580OHx6091;
name OHx4580;
to nodeOHx4792OHx4580;
length 257.962;
configuration OHx221339line_configuration516601;
};

object overhead_line {
phases 27N;
from nodeOHx4792OHx4580;
name OHx4792;
to nodeOHx5801OHx4792;
length 259.517;
configuration OHx221339line_configuration516601;
};

object overhead_line {
phases "ABCN";
from nodeOHx5801OHx4792;
name OHx5801;
to nodeOHx1468OHx5801;
length 264.31;
configuration OHx221339line_configuration516601;
};

object overhead_line {
phases "ABCN";
from nodeOHx1468OHx5801;
name OHx1468;
to nodeOHx5074OHx1468;
length 262.206;
configuration OHx221339line_configuration516601;
};

object overhead_line {
phases "ABCN";
from nodeOHx5074OHx1468;
name OHx5074;
to nodeOHx3452OHx5074;
length 256.514;
configuration OHx221339line_configuration516601;
};

object overhead_line {
phases "ABCN";
from nodeOHx3452OHx5074;
name OHx3452;
to nodeOHx4485OHx3452;
length 257.527;
configuration OHx221339line_configuration516601;
};

object overhead_line {
phases "ABCN";
from nodeOHx4485OHx3452;
name OHx4485;
to nodeSWx18625xG3062-BOHx4485;
length 259.046;
configuration OHx221339line_configuration516601;
};

object switch {
status CLOSED;
phases "ABCN";
from nodeSWx18625xG3062-BOHx4485;
name SWx18625xG3062-B;
to nodeSWx18625xG3062SWx18625xG3062-B;
};

object switch {
status CLOSED;
phases "ABCN";
from nodeSWx18625xG3062SWx18625xG3062-B;
name SWx18625xG3062;
to nodeOHx1685SWx18625xG3062;
};

object overhead_line {
phases "ABCN";
from nodeOHx1685SWx18625xG3062;
name OHx1685;
to nodeOHx5402OHx1685;
length 276.803;
configuration OHx221339line_configuration516601;
};

object overhead_line {
phases "ABCN";
from nodeOHx5402OHx1685;
name OHx5402;
to nodeOHx1509OHx5402;
length 34.9652;
configuration OHx221339line_configuration516601;
};

object line_configuration {
name OHx1509line_configuration14801;
spacing OHx221170line_configuration524201line_spacing524202;
conductor_N OHSx176419line_configuration348801ohlc348804;
conductor_A OHx220109line_configuration305801ohlc305804;
conductor_C OHx220109line_configuration305801ohlc305804;
conductor_B OHx220109line_configuration305801ohlc305804;
};

object overhead_line {
phases "ABCN";
from nodeOHx1509OHx5402;
name OHx1509;
to nodeOHx253850OHx1509;
length 117.652;
configuration OHx1509line_configuration14801;
};

object overhead_line {
phases "AN";
from nodeOHx253850OHx1509;
name OHx253850;
to nodeFUSEx7897OHx253850;
length 10;
configuration OHx571320line_configuration513801;
};

object fuse {
phases "AN";
from nodeFUSEx7897OHx253850;
name FUSEx7897;
current_limit 9999.0 A;
to nodeOHx253851FUSEx7897;
};

object overhead_line {
phases "AN";
from nodeOHx253851FUSEx7897;
name OHx253851;
to nodeOHx253849OHx253851;
length 75.5002;
configuration OHx571320line_configuration513801;
};

object overhead_line {
phases "AN";
from nodeOHx253849OHx253851;
name OHx253849;
to nodeOHx253852OHx253849;
length 252.91;
configuration OHx571320line_configuration513801;
};

object overhead_line {
phases 14N;
from nodeOHx253852OHx253849;
name OHx253852;
to nodeOHx253853OHx253852;
length 242;
configuration OHx571320line_configuration513801;
};

object transformer {
phases "ABN";
from nodeOHx253853OHx253852;
name OTx191494;
to nodeOHSx56747OTx191494;
configuration OTx190050transformer_configuration130801;
};

object underground_line {
phases "ABN";
from nodeOHSx56747OTx191494;
name UGSx63574;
to node0021354655002UGSx63574;
length 10;
configuration UGSx54540line_configuration262101;
};

object load {
phases "ABN";
name 0021354655002;
parent node0021354655002UGSx63574;
load_class R;
constant_power_C 100;
constant_power_B 100;
constant_power_A 100;
nominal_voltage 120;
};

object transformer {
phases "AB";
from nodeOHx253852OHx253849;
name OTx444996;
to nodeUGSx189368OTx444996;
configuration OTx190050transformer_configuration130801;
};

object underground_line {
phases "AB";
from nodeUGSx189368OTx444996;
name UGSx189368;
to node0021354657001UGSx189368;
length 118.622;
configuration UGSx54540line_configuration262101;
};

object load {
phases "ABN";
name 0021354657001;
parent node0021354657001UGSx189368;
load_class R;
constant_power_C 100;
constant_power_B 5279.84;
constant_power_A 5279.84;
nominal_voltage 120;
};

object overhead_line {
phases "ABCN";
from nodeOHx253850OHx1509;
name OHx254178-S463;
to nodeOHx254178OHx254178-S463;
length 10;
configuration OHx221339line_configuration516601;
};

object overhead_line {
phases "ABCN";
from nodeOHx254178OHx254178-S463;
name OHx254178;
to nodeOHx254179OHx254178;
length 131.456;
configuration OHx221339line_configuration516601;
};

object overhead_line {
phases "ABCN";
from nodeOHx254179OHx254178;
name OHx254179;
to nodeOTx202019OHx254179;
length 217.919;
configuration OHx221339line_configuration516601;
};

object transformer {
phases "AB";
from nodeOTx202019OHx254179;
name OTx202019;
to nodeUGSx1318443OTx202019;
configuration OTx190050transformer_configuration130801;
};

object underground_line {
phases "AB";
from nodeUGSx1318443OTx202019;
name UGSx1318443;
to node0021354646002UGSx1318443;
length 229.267;
configuration UGSx54540line_configuration262101;
};

object load {
phases "ABN";
name 0021354646002;
parent node0021354646002UGSx1318443;
load_class R;
constant_power_C 100;
constant_power_B 4701.51;
constant_power_A 4701.51;
nominal_voltage 120;
};

object underground_line {
phases "AB";
from nodeUGSx1318443OTx202019;
name UGSx1334520;
to nodeUGSx1334519UGSx1334520;
length 10.1657;
configuration UGSx54540line_configuration262101;
};

object underground_line {
phases "AB";
from nodeUGSx1334519UGSx1334520;
name UGSx1334519;
to node0021354657004UGSx1334519;
length 190.756;
configuration UGSx54540line_configuration262101;
};

object load {
phases "ABN";
name 0021354657004;
parent node0021354657004UGSx1334519;
load_class R;
constant_power_C 100;
constant_power_B 1871.27;
constant_power_A 1871.27;
nominal_voltage 120;
};

object overhead_line {
phases 47N;
from nodeOTx202019OHx254179;
name OHx254177-S5000;
to nodeOHx254177OHx254177-S5000;
length 232.808;