clear
set defaultbasefrequency=60
new object=circuit.lehigh basekv=115 pu=1.0001 phases=3 bus1=sourcebus angle=30 mvasc3=20000 mvasc1=21000
edit object=vsource.source basekv=115 bus1=sourcebus.1.2.3 pu=1.00 r1=0 x1=0.0001 r0=0 x0=0.0001
new object=vsource.secondsource basekv=4.16 bus1=680.1.2.3 pu=1.00 r1=0 x1=0.0001 r0=0 x0=0.0001
new object=transformer.sub phases=3 windings=2 xhl=0.008 buses=[sourcebus.1.2.3,650.1.2.3] conns=[delta,wye] kvs=[115,4.16] kvas=[5000,5000] %rs=[0.0005,0.0005]
new object=transformer.reg1 phases=1 bank=reg1 xhl=0.01 kvas=[1666,1666] buses=[650.1,rg60.1] kvs=[2.4,2.4] %loadloss=0.01
new object=regcontrol.reg1 transformer=reg1 winding=2 vreg=121 band=2 ptratio=20 ctprim=700 r=3 x=9
new object=transformer.reg2 phases=1 bank=reg1 xhl=0.01 kvas=[1666,1666] buses=[650.2,rg60.2] kvs=[2.4,2.4] %loadloss=0.01
new object=regcontrol.reg2 transformer=reg2 winding=2 vreg=121 band=2 ptratio=20 ctprim=700 r=3 x=9
new object=transformer.reg3 phases=1 bank=reg1 xhl=0.01 kvas=[1666,1666] buses=[650.3,rg60.3] kvs=[2.4,2.4] %loadloss=0.01
new object=regcontrol.reg3 transformer=reg3 winding=2 vreg=121 band=2 ptratio=20 ctprim=700 r=3 x=9
new object=transformer.xfm1 phases=3 windings=2 xhl=2 buses=[633.1.2.3,634.1.2.3] conns=[wye,wye] kvs=[4.16,0.480] kvas=[500,500] %rs=[0.55,0.55] xht=1 xlt=1
new object=linecode.mtx601 nphases=3 basefreq=60 rmatrix=[0.3465|0.1560,0.3375|0.1580,0.1535,0.3414] xmatrix=[1.0179|0.5017,1.0478|0.4236,0.3849,1.0348] units=mi
new object=linecode.mtx602 nphases=3 basefreq=60 rmatrix=[0.7526|0.1580,0.7475|0.1560,0.1535,0.7436] xmatrix=[1.1814|0.4236,1.1983|0.5017,0.3849,1.2112] units=mi
new object=linecode.mtx603 nphases=2 basefreq=60 rmatrix=[1.3238|0.2066,1.3294] xmatrix=[1.3569|0.4591,1.3471] units=mi
new object=linecode.mtx604 nphases=2 basefreq=60 rmatrix=[1.3238|0.2066,1.3294] xmatrix=[1.3569|0.4591,1.3471] units=mi
new object=linecode.mtx605 nphases=1 basefreq=60 rmatrix=[1.3292] xmatrix=[1.3475] units=mi
new object=linecode.mtx606 nphases=3 units=mi rmatrix=[0.791721|0.318476,0.781649|0.28345,0.318476,0.791721] xmatrix=[0.438352|0.0276838,0.396697|-0.0184204,0.0276838,0.438352] cmatrix=[383.948|0,383.948|0,0,383.948]
new object=linecode.mtx607 nphases=1 basefreq=60 rmatrix=[1.3425] xmatrix=[0.5124] cmatrix=[236] units=mi
new object=loadshape.solar_634_shape npts=8760 interval=1 useactual=yes mult=[0.0,0.0,0.0,0.0,0.0,0.0,0.0,0.0,15.573260498977016,36.254152392878254,49.93053620094359,57.45738414262149,60.415988449430614,58.179937757249256,51.5282816423427,40.00984533738784,21.675419050166653,1.4478824694763064,0.0,0.0,0.0,0.0,0.0,0.0,0.0,0.0,0.0,0.0,0.0,0.0,0.0,0.0,5.753271209147158,19.26670876996312,33.03507196820331,40.76233190011129,47.2807764844198,55.6142281731266,33.81451800735731,36.72792554485639,18.643270877506524,0.6597142467712414,0.0,0.0,0.0,0.0,0.0,0.0,0.0,0.0,0.0,0.0,0.0,0.0,0.0,0.0,7.302251715238048,32.00248437462416,45.487376607454834,53.53815025652948,56.78954240663222,54.744388595352504,27.471706482736096,30.904480404412052,15.036846210586695,0.5986589619138069,0.0,0.0,0.0,0.0,0.0,0.0,0.0,0.0,0.0,0.0,0.0,0.0,0.0,0.0,10.85673974374019,32.030831471165115,46.36098258267145,40.07962280579635,32.68459877460609,21.38877638164766,50.119054304513135,23.23768106302848,12.63566872526817,0.4852705757499997,0.0,0.0,0.0,0.0,0.0,0.0,0.0,0.0,0.0,0.0,0.0,0.0,0.0,0.0,7.095099855900322,24.1057365578035,30.46757830108158,40.14682326542839,38.91540953317389,32.21280793707137,32.744266439353126,24.993020502679723,12.097470353878771,0.9735146231651342,0.0,0.0,0.0,0.0,0.0,0.0,0.0,0.0,0.0,0.0,0.0,0.0,0.0,0.0,5.843268284878571,7.700498686921767,20.514575712098026,12.4245522370436,26.131067224648984,27.75577214247864,22.992072303488342,12.36052348052103,8.400255685450157,1.4635427535793497,0.0,0.0,0.0,0.0,0.0,0.0,0.0,0.0,0.0,0.0,0.0,0.0,0.0,0.0,16.996364037910528,39.72776199208872,55.65942494243665,64.99117018485137,68.29370604759443,66.18452347979215,59.06979871090193,46.50351099115357,26.45914026503552,2.7441178840307376,0.0,0.0,0.0,0.0,0.0,0.0,0.0,0.0,0.0,0.0,0.0,0.0,0.0,0.0,4.729604030563417,28.01624826034445,38.162526507561765,41.016068148869465,26.50156179412478,26.983065972432275,29.823127875524698,18.079302418352626,12.032053977245807,0.6240325867896238,0.0,0.0,0.0,0.0,0.0,0.0,0.0,0.0,0.0,0.0,0.0,0.0,0.0,0.0,0.4166824960075569,0.8317791404603753,2.944728105705166,11.057944659747644,14.41618355835089,10.295150061918395,4.402522147398588,2.2011619579771224,5.032898140407166,0.1024856567249795,0.0,0.0,0.0,0.0,0.0,0.0,0.0,0.0,0.0,0.0,0.0,0.0,0.0,0.0,0.2797045679670137,7.329409423112944,8.067821553288088,8.310060378274402,9.551583914190354,15.16728250096394,22.46656074453685,16.706549666282058,6.365806372164927,0.2697929957498977,0.0,0.0,0.0,0.0,0.0,0.0,0.0,0.0,0.0,0.0,0.0,0.0,0.0,0.0,15.133781386870089,37.22033245260271,52.73511467549874,62.00203823561351,65.55018285789671,63.77383088514519,56.93881068422199,45.19220998682912,26.1203627266545,3.177650052807392,0.0,0.0,0.0,0.0,0.0,0.0,0.0,0.0,0.0,0.0,0.0,0.0,0.0,0.0,15.736999672003767,37.44354105893217,52.31545870782605,61.30287593141817,56.83533387027529,53.642023533364856,56.501710349447166,44.550336570048685,25.87832213311253,3.5037407787505086,0.0,0.0,0.0,0.0,0.0,0.0,0.0,0.0,0.0,0.0,0.0,0.0,0.0,0.0,6.771982601622341,22.030055104095062,41.743775781050125,44.07834750106963,48.212464272828704,52.70042417273884,44.640730108668784,36.29915093074395,23.424415083598944,3.285091495640929,0.0,0.0,0.0,0.0,0.0,0.0,0.0,0.0,0.0,0.0,0.0,0.0,0.0,0.0,7.024331230270114,28.830583033702695,30.111554627042775,57.276597065381296,61.31952737274292,60.028445975741384,53.70327704966663,42.145987381620685,23.044405404794716,3.44665012277992,0.0,0.0,0.0,0.0,0.0,0.0,0.0,0.0,0.0,0.0,0.0,0.0,0.0,0.0,8.154646925910024,20.628955255483543,33.74493877039316,36.421261500458826,39.57968310316501,38.08204454115879,30.561341774255496,19.69270814385477,17.998027526172276,3.06644221253135,0.0,0.0,0.0,0.0,0.0,0.0,0.0,0.0,0.0,0.0,0.0,0.0,0.0,0.0,6.278386305209963,29.77575056032688,51.754860183225965,60.39537237921902,63.96334014593644,62.483145951032334,55.97619879049568,33.17006758180043,26.67580723370168,4.9928553886500175,0.0,0.0,0.0,0.0,0.0,0.0,0.0,0.0,0.0,0.0,0.0,0.0,0.0,0.0,0.8280127430178712,19.647313143100376,18.415899410845885,18.861325466283077,27.461993141963323,44.25853988397679,22.385484083800844,16.31722310959374,2.125437546238357,0.0335011140938521,0.0,0.0,0.0,0.0,0.0,0.0,0.0,0.0,0.0,0.0,0.0,0.0,0.0,0.0,10.72253705592044,11.912520416307387,6.300191764087619,7.795848011650424,62.03296234093093,60.64018821298177,29.96625097833985,43.043777593047054,25.38492406814449,5.050540738953633,0.0,0.0,0.0,0.0,0.0,0.0,0.0,0.0,0.0,0.0,0.0,0.0,0.0,0.0,0.0,5.479513584510413,20.63153226426,54.80722796320901,59.34058286387353,22.30401096017615,14.685778322656448,17.04711128766216,6.380079036157574,5.269982947840582,0.0,0.0,0.0,0.0,0.0,0.0,0.0,0.0,0.0,0.0,0.0,0.0,0.0,0.0,16.65738826808516,39.40464473781074,54.562610360890595,63.25644681541173,66.41665250111699,64.96718418008595,58.99407429916315,47.52717816973731,28.726115062534294,6.454217596341601,0.0,0.0,0.0,0.0,0.0,0.0,0.0,0.0,0.0,0.0,0.0,0.0,0.0,0.0,4.869951893157779,13.030743993842414,34.09323141810262,60.22449687419595,64.43096812313998,63.66044249898138,57.77732969379,46.368713609000785,28.41786516658199,6.598133624934126,0.0,0.0,0.0,0.0,0.0,0.0,0.0,0.0,0.0,0.0,0.0,0.0,0.0,0.0,16.238723457634183,37.78667968908873,52.91907345584842,62.54142599566898,66.58237398858718,65.17334488220197,58.71417149975181,46.8680586172991,28.39665440203736,6.693681181107125,0.0,0.0,0.0,0.0,0.0,0.0,0.0,0.0,0.0,0.0,0.0,0.0,0.0,0.0,16.056152297394902,38.28047421694544,54.34197876333759,64.29280080643338,68.46101338661936,66.99965117892776,60.585476334343305,48.8255941301795,30.401963693004273,7.661645323830673,0.0,0.0,0.0,0.0,0.0,0.0,0.0,0.0,0.0,0.0,0.0,0.0,0.0,0.0,4.395584046846607,15.114751168213228,50.42036609991347,41.846657900663786,63.334351773038264,52.32219857693368,55.20329438900497,38.06281609105758,23.692027533461076,5.073932049386026,0.0,0.0,0.0,0.0,0.0,0.0,0.0,0.0,0.0,0.0,0.0,0.0,0.0,0.0,4.5636843116488945,27.094075581263976,29.440144725055333,44.59355102491531,63.72149778383883,63.04314978129939,47.33905652905644,44.281732962964846,25.786342742937688,5.852386931318318,0.0,0.0,0.0,0.0,0.0,0.0,0.0,0.0,0.0,0.0,0.0,0.0,0.0,0.0,9.090299343205777,18.145313489318617,29.015532971274087,22.37616720591675,11.883380393989066,3.5495322423935844,10.281273860814434,19.703412641849255,8.048791334631225,2.6511473366341898,0.0,0.0,0.0,0.0,0.0,0.0,0.0,0.0,0.0,0.0,0.0,0.0,0.0,0.0,13.515419875259388,24.372952544776947,16.717452395720887,49.41711676009699,67.53348845854163,67.51921579454898,61.865258539017326,50.26455618466041,31.382218185277047,8.700576323628772,0.0,0.0,0.0,0.0,0.0,0.0,0.0,0.0,0.0,0.0,0.0,0.0,0.0,0.0,18.88709555404758,43.006906544399385,59.37071404341357,69.05590595109065,72.5842274289396,70.8913308942562,63.79484341824547,51.86765387505675,33.24599022498354,9.67329802101654,0.0,0.0,0.0,0.0,0.0,0.0,0.0,0.0,0.0,0.0,0.0,0.0,0.0,0.0,9.612242736159104,40.267546215032866,44.601480282689,49.84311613398864,50.10775511218563,52.45204017297792,44.9850581274914,32.543656217678695,19.637798033771944,8.370917431687497,0.0,0.0,0.0,0.0,0.0,0.0,0.0,0.0,0.0,0.0,0.0,0.0,0.0,0.0,1.905995337351408,9.198137248927996,11.308310973951995,31.748946357310334,33.87259982054961,17.87988158534425,14.114078837173194,7.867013100169317,16.673841477965574,3.859169758456289,0.0,0.0,0.0,0.0,0.0,0.0,0.0,0.0,0.0,0.0,0.0,0.0,0.0,0.0,3.0263994607742015,19.631256396108647,39.09421429597067,36.7612284275059,31.4414893871354,38.30941600781942,35.51078447659455,29.91927012603072,9.211815218587615,0.7213642259617029,0.0,0.0,0.0,0.0,0.0,0.0,0.0,0.0,0.0,0.0,0.0,0.0,0.0,0.0,15.318929555885816,35.79266959044933,11.17549590624264,16.45459750052297,24.594971762440345,33.33578906927061,25.890810714106095,45.55695584441899,29.177686292746102,8.717425996397871,0.0,0.0,0.0,0.0,0.0,0.0,0.0,0.0,0.0,0.0,0.0,0.0,0.0,0.0,4.722467698567093,13.648631405857428,15.358972307642969,21.054954629375192,46.242241947510394,40.60909899363468,37.820775497515605,19.6802195628612,12.204118870934938,8.438712585652567,0.0,0.0,0.0,0.0,0.0,0.0,0.0,0.0,0.0,0.0,0.0,0.0,0.0,0.0,16.255573130403278,36.65101174445157,7.244764596378773,12.466775534688514,12.934205280447706,14.315878447513676,15.8626784077168,11.328530581274912,3.047213762430145,2.5924708291088625,0.0,0.0,0.0,0.0,0.0,0.0,0.0,0.0,0.0,0.0,0.0,0.0,0.0,0.0,16.272422803172375,9.399738627824137,24.109106492357316,38.15023615801254,64.42660703136444,63.67451693152967,57.6353959796409,45.883443033250785,28.847036243583112,8.924974318624281,0.0,0.0,0.0,0.0,0.0,0.0,0.0,0.0,0.0,0.0,0.0,0.0,0.0,0.0,4.380914919965275,1.6554307917027156,50.0673158975398,59.512647757562654,63.71594730339723,31.260107615562177,57.87406663862905,47.20643969279143,30.83529763033658,9.88877560101664,0.0,0.0,0.0,0.0,0.0,0.0,0.0,0.0,0.0,0.0,0.0,0.0,0.0,0.0,6.4944585795430925,25.144667557601597,34.589801186180125,33.94713484362232,12.517324552995806,12.204515333823624,19.673479693753563,0.3496802678198527,4.4867705112440746,0.821669336798917,0.0,0.0,0.0,0.0,0.0,0.0,0.0,0.0,0.0,0.0,0.0,0.0,0.0,0.0,16.955330128931667,38.70032841606248,53.941551245766114,63.50185734350752,67.91488575745625,66.99984941037211,60.716903781942264,49.76977049958198,32.347605319224144,10.713814872369376,0.0,0.0,0.0,0.0,0.0,0.0,0.0,0.0,0.0,0.0,0.0,0.0,0.0,0.0,1.343612729752246,8.84389765788827,35.88861360951101,42.72819313365408,52.55967984725579,33.320327016611905,43.59287869387528,48.90825664247025,32.514714426804716,11.119594638938104,0.0,0.0,0.0,0.0,0.0,0.0,0.0,0.0,0.0,0.0,0.0,0.0,0.0,0.0,18.722959918132137,19.196733070110284,25.26221880409659,63.41304965644216,67.42723640437414,41.85676770432524,60.035384076293376,49.52772990604001,33.23687157854379,11.560659602599769,0.0,0.0,0.0,0.0,0.0,0.0,0.0,0.0,0.0,0.0,0.0,0.0,0.0,0.1686949591353144,18.239076962492536,39.21354962546474,53.48680831244482,62.36420708442695,65.71035386492531,65.19653796119,58.48442125575906,47.03596065065704,30.128404299811866,10.019410122838227,0.0,0.0,0.0,0.0,0.0,0.0,0.0,0.0,0.0,0.0,0.0,0.0,0.0,0.1633427101380718,6.266888881438109,13.785411102453628,18.32768641811355,28.17384225859659,64.57270360584472,63.586502170241694,57.79219705211567,47.34758048116316,17.006870304460673,6.363229363388476,0.0,0.0,0.0,0.0,0.0,0.0,0.0,0.0,0.0,0.0,0.0,0.0,0.0,0.0,0.0,0.7639839864953019,3.5588491202776735,5.430946880646545,11.840562402011123,14.321825390843948,9.253642053343846,7.890206179157369,6.158654512827202,2.4983108930462605,0.0,0.0,0.0,0.0,0.0,0.0,0.0,0.0,0.0,0.0,0.0,0.0,0.0,0.1891127979025734,0.214882885667075,10.543335830234982,20.21147983369862,51.47634500392501,73.62216727151598,73.2062777012858,66.69992523508218,54.982662791451965,37.015162907708415,13.525926141809531,0.0,0.0,0.0,0.0,0.0,0.0,0.0,0.0,0.0,0.0,0.0,0.0,0.0,0.6357282420058207,21.34694954689143,43.38711445464796,57.886951682511295,67.39611406761239,71.82638861721891,70.7967744953049,64.6783609656792,40.498287616247325,35.15555372833311,12.694741695682184,0.0,0.0,0.0,0.0,0.0,0.0,0.0,0.0,0.0,0.0,0.0,0.0,0.0,0.7350421956213231,22.00805141377307,45.01637869569748,60.38288379822545,69.96658120639925,74.07433319606082,72.62466664358543,66.0386251367562,54.11698607400906,36.81316506592359,13.922190799049828,0.0,0.0,0.0,0.0,0.0,0.0,0.0,0.0,0.0,0.0,0.0,0.0,0.0,0.8482323503407878,21.83598652008393,43.42993244662589,57.67226702828856,66.461254576094,70.16501088218594,68.89593317550639,62.96544305511719,52.04070992596759,35.2061027466404,13.35405947956474,0.0,0.0,0.0,0.0,0.0,0.0,0.0,0.0,0.0,0.0,0.0,0.0,0.0,0.7455484621714661,20.488607392889183,41.82723121911824,56.11357318142491,65.26373842082207,69.15898630214865,67.76839272008728,62.19808913406808,50.644169400575954,33.582388986032456,11.323574795166351,0.0,0.0,0.0,0.0,0.0,0.0,0.0,0.0,0.0,0.0,0.0,0.0,0.0,0.5998483505798606,18.411538319070356,38.28661939172006,32.0030790689572,35.86581699341164,45.91416890712385,64.27614936510862,51.48506718747607,37.50499280667829,28.042018348108954,9.069881504438516,0.0,0.0,0.0,0.0,0.0,0.0,0.0,0.0,0.0,0.0,0.0,0.0,0.0,0.806801978473243,19.93296465439766,40.70266423536425,54.88334883783647,63.6263466905545,67.005003427925,67.18995336549638,60.75892884814284,37.91235842480175,33.10921052838734,12.617827895277362,0.0,0.0,0.0,0.0,0.0,0.0,0.0,0.0,0.0,0.0,0.0,0.0,0.0,1.0436885544623156,20.964561090755097,41.47497394252193,56.00930344170084,64.79155112039867,50.497874594651314,40.98692812655114,34.87743501192084,50.07286637798138,17.42890504946547,12.693948769904813,0.0,0.0,0.0,0.0,0.0,0.0,0.0,0.0,0.0,0.0,0.0,0.0,0.0,0.0,0.4039956835696484,1.7371021467717516,4.041939150139908,19.173936454010917,32.78530034833199,21.96642281046118,19.96943924015665,48.4564871808141,14.307354495406956,12.482039355902872,0.0,0.0,0.0,0.0,0.0,0.0,0.0,0.0,0.0,0.0,0.0,0.0,0.0,1.278592816007965,22.01598067154676,43.42299434607391,57.64094646008248,66.3998028283479,69.56555899449475,68.00210759296688,62.32991304455573,51.66605249616061,35.67868650995249,9.47506657667422,0.0,0.0,0.0,0.0,0.0,0.0,0.0,0.0,0.0,0.0,0.0,0.0,0.0,0.0,0.0,5.603408237224364,17.675901429116003,26.577682668752235,11.894283123427895,7.424758747841601,10.223984973399505,11.791995698147256,5.10327030314869,4.475669550360904,0.0,0.0,0.0,0.0,0.0,0.0,0.0,0.0,0.0,0.0,0.0,0.0,0.0,1.4181477528249582,2.0237448152907462,6.284135017095891,7.968309368228244,34.05794622100968,44.11224507805216,49.52277411993145,22.90187699631259,20.806570629614264,33.01822229543421,7.872761812055245,0.0,0.0,0.0,0.0,0.0,0.0,0.0,0.0,0.0,0.0,0.0,0.0,0.0,1.7591058370937491,21.375693106321062,35.1892530738713,55.245319455205546,63.83092154111578,67.02879120124608,65.94406873780491,60.7985751370113,13.040853797503871,34.335866705977615,13.665679310070868,0.0,0.0,0.0,0.0,0.0,0.0,0.0,0.0,0.0,0.0,0.0,0.0,0.0,0.0,1.777739592861927,8.039276225302794,10.32547947290277,14.230638926446478,15.49376968979574,9.858446190032266,19.6764531654187,12.327418829315862,11.626868905010102,5.676555640186679,0.0,0.0,0.0,0.0,0.0,0.0,0.0,0.0,0.0,0.0,0.0,0.0,0.0,2.56233964956883,18.878769833385203,36.296970384856195,64.17069023671851,73.58291744553621,67.16973375817346,60.080580845603414,51.919392282030095,41.262073371298285,24.729372681704437,6.3223936858539584,0.0,0.0,0.0,0.0,0.0,0.0,0.0,0.0,0.0,0.0,0.0,0.0,0.0,3.857980369790235,27.634652729985483,49.06129131750253,62.40702507640489,70.04646847846924,73.32283779055909,71.98695608713619,65.83345559186189,55.22767685665908,39.25418707155492,16.589989577008772,0.0,0.0,0.0,0.0,0.0,0.0,0.0,0.0,0.0,0.0,0.0,0.0,0.0,0.5409736116101916,5.721157715163701,14.768639066391536,22.27843910385599,17.215806246797477,20.554618463855174,53.48284368355798,30.143271658137547,44.92816570296515,35.60791788432228,14.735534415186368,0.0529277956393994,0.0,0.0,0.0,0.0,0.0,0.0,0.0,0.0,0.0,0.0,0.0,0.0,4.379527299854879,26.652812386157972,48.15160721941562,62.158839308088304,70.11684064121074,73.6802490847083,72.26130840610597,64.12688108751885,51.946549989904995,35.572236224340664,13.20617882208537,0.0231930789880514,0.0,0.0,0.0,0.0,0.0,0.0,0.0,0.0,0.0,0.0,0.0,0.0,4.549808110544932,28.759219713739466,50.32343092363008,64.50371906321361,72.70633799865446,75.71866302688036,74.28148505539855,67.19411622582757,55.371791116695945,38.53163345692716,16.46510376707311,0.1397531682613357,0.0,0.0,0.0,0.0,0.0,0.0,0.0,0.0,0.0,0.0,0.0,0.0,4.976402178769605,27.967086862147553,49.45160903141255,63.68343734652508,72.19569379802866,75.60705872371564,73.6536860711664,67.48611114334382,56.52966098309943,40.00984533738784,17.485599242547377,0.3161791537260006,0.0,0.0,0.0,0.0,0.0,0.0,0.0,0.0,0.0,0.0,0.0,0.0,2.9996382157879884,25.509215183747123,45.77857859919371,34.717660467780924,34.700414332123145,55.27505417185689,65.62392495519205,56.47415617868358,49.50275274405286,37.90561855569412,16.498406649722618,0.2475910739835578,0.0,0.0,0.0,0.0,0.0,0.0,0.0,0.0,0.0,0.0,0.0,0.0,1.9484168664406647,16.655207722197396,17.249902055224357,15.084025294340169,16.15725033400949,10.621240787861511,25.012447184225273,8.24999625063868,12.61227741483578,5.416079522320871,0.7098668021898484,0.0,0.0,0.0,0.0,0.0,0.0,0.0,0.0,0.0,0.0,0.0,0.0,0.0,5.005542201087926,20.936213994214143,48.031677195588514,64.04540796389416,67.90100955635228,75.56424073173771,64.41431668181522,59.546941797433895,46.755661388357,32.763296658009985,7.823996876747034,0.0,0.0,0.0,0.0,0.0,0.0,0.0,0.0,0.0,0.0,0.0,0.0,0.0,4.0821801333413985,30.02968504052939,51.50865672935281,66.13774085892734,75.27977860910647,79.00890854007419,77.54635694371657,70.83007737795441,59.369128191858834,42.50002874121606,17.63903038046833,0.2002137587857433,0.0,0.0,0.0,0.0,0.0,0.0,0.0,0.0,0.0,0.0,0.0,0.0,4.61799972739869,29.953564165901945,50.21757533235128,62.92203036880624,70.44194020993214,72.95789370152488,71.97446750614262,66.10879906805337,54.54873415978664,39.73172662097557,17.77581007706453,0.4384879548852122,0.0,0.0,0.0,0.0,0.0,0.0,0.0,0.0,0.0,0.0,0.0,0.0,4.377941448300141,25.001940917675128,34.5892064918471,46.835152197538264,48.13495577809086,49.42722656375844,46.94338656614917,36.7949277730441,36.9420155047461,32.21637610306953,12.909426349904916,0.286047974185968,0.0,0.0,0.0,0.0,0.0,0.0,0.0,0.0,0.0,0.0,0.0,0.0,3.551911019725692,14.645933802343638,25.893387722882544,58.04771738387292,55.060765980522845,45.91872823034373,34.60744378472659,36.60185034625467,25.47571406965327,16.89883416729411,8.07654373683915,0.0,0.0,0.0,0.0,0.0,0.0,0.0,0.0,0.0,0.0,0.0,0.0,0.0,2.262019011390215,19.52559903627419,40.47469807437059,36.33007503606135,75.93235652388138,78.0809871491078,79.03983264539161,72.13642259617029,60.273063578059805,42.63006856870463,19.12457682436968,0.6291866043425242,0.0,0.0,0.0,0.0,0.0,0.0,0.0,0.0,0.0,0.0,0.0,0.0,6.178279425817092,32.183271451864364,52.85207122766071,66.37145573180693,73.87253358572035,76.81825284864722,75.13011386862803,67.20065786349087,56.819277123283555,40.82873943396597,18.622853038739265,0.6232396610122546,0.0,0.0,0.0,0.0,0.0,0.0,0.0,0.0,0.0,0.0,0.0,0.0,8.532674290270828,32.73058846969351,53.62854379514958,67.39789815061148,75.55591501107531,78.5864773321807,76.95939363701895,69.91722157675802,57.85127002252968,41.04124354230094,18.737232582124783,0.6226449666792275,0.0,0.0,0.0,0.0,0.0,0.0,0.0,0.0,0.0,0.0,0.0,0.0,7.7135819622483615,32.97421491479022,52.59516327579307,65.46137517083135,73.7145431245795,77.18379163201446,76.36529399832501,70.4403543583774,59.08863069811444,42.75138621264214,19.87825277575918,0.738015667286458,0.0,0.0,0.0,0.0,0.0,0.0,0.0,0.0,0.0,0.0,0.0,0.0,7.76135574033486,30.89060420330809,49.45696128040979,61.627182574362195,68.82873271587434,72.03651394822177,70.74741486566366,57.977939915464425,20.412288286817382,18.24660975737754,4.39756636129003,0.1137848490524917,0.0,0.0,0.0,0.0,0.0,0.0,0.0,0.0,0.0,0.0,0.0,0.0,1.4122008094946887,16.995769343577503,25.82321379158536,20.815094581720984,33.26759745241686,37.32143048921729,53.90943775178265,63.841229576221565,41.68331519052571,33.16154362969371,16.007189130642352,0.5988571933581491,0.0,0.0,0.0,0.0,0.0,0.0,0.0,0.0,0.0,0.0,0.0,0.0,0.8430783327878877,4.1426407238658065,9.346810832184737,43.56968561488723,46.05867963004941,45.409868112716985,43.965355577794504,42.26115985078357,40.77957803576907,30.425156771992327,0.9304983997428508,0.0,0.0,0.0,0.0,0.0,0.0,0.0,0.0,0.0,0.0,0.0,0.0,0.0,8.118172340151038,9.77776599218494,6.9492015128643745,17.307785636972316,34.67127430980482,5.034483991961904,4.669936365816378,17.377959568269496,8.254555573858552,21.49562313014817,10.227553139397664,0.7703273927142561,0.0,0.0,0.0,0.0,0.0,0.0,0.0,0.0,0.0,0.0,0.0,0.0,7.865823711503263,14.633841684238758,18.380812445197293,36.07653701874753,54.20341498374231,60.518474106155594,60.661597208970754,61.66821648334106,55.87906538276794,41.717807461841275,19.441350672428708,0.8270215857961596,0.0,0.0,0.0,0.0,0.0,0.0,0.0,0.0,0.0,0.0,0.0,0.0,10.395256941311269,33.87081573755054,54.17090502687016,68.3278018560213,77.39728689757114,81.02472409759125,79.44620710629336,72.6193143945882,60.569023124462895,43.75582494112467,20.506844685768677,1.039723925575469,0.0,0.0,0.0,0.0,0.0,0.0,0.0,0.0,0.0,0.0,0.0,0.0,11.332296978717416,36.021032214331676,56.14687606407442,69.73683096240651,77.88513448209758,80.67920669010259,78.673500936247,71.54747697502926,59.773322106872826,43.24240550027806,20.422001627590163,0.9967077021531856,0.0,0.0,0.0,0.0,0.0,0.0,0.0,0.0,0.0,0.0,0.0,0.0,10.807776576987637,33.176807450908065,51.73642465890212,64.35048615673699,71.12306345269236,73.26435951447812,71.43111511720032,62.53448789511699,54.99554783533422,33.02119576709935,15.576035739197808,0.8718218922175238,0.0,0.0,0.0,0.0,0.0,0.0,0.0,0.0,0.0,0.0,0.0,0.0,6.381863119156655,22.150183359366512,49.475396804733634,58.09509469907074,71.58137455201181,74.32410481593215,72.14316246527794,65.6526685146217,55.42947646699956,40.63328322984445,19.364436872023887,0.9883819814908082,0.0,0.0,0.0,0.0,0.0,0.0,0.0,0.0,0.0,0.0,0.0,0.0,6.52677030497089,18.50391417213387,20.630342875593943,28.509646325312485,33.82819597701693,33.94535076062325,17.60572749781882,25.57145985727061,18.530675417120086,7.774240784217112,14.01972066966625,0.8902574165413596,0.0,0.0,0.0,0.0,0.0,0.0,0.0,0.0,0.0,0.0,0.0,0.0,3.9529332316302055,2.114534816799529,11.838778319012045,14.17790936225142,19.821756814121617,31.720599260769383,37.63939372594238,30.422579763215875,19.38941403401102,13.355447099675136,4.075242032789418,0.0,0.0,0.0,0.0,0.0,0.0,0.0,0.0,0.0,0.0,0.0,0.0,0.0,8.976712725597626,11.84353587367626,39.953745838638966,62.98486973666275,69.93545886963751,34.07321004222404,30.852741997438702,30.64777068398875,27.668550306968022,18.597875876752138,2.679890896063826,1.1142589486481815,0.0,0.0,0.0,0.0,0.0,0.0,0.0,0.0,0.0,0.0,0.0,0.0,11.61200154668443,34.392759130503855,52.23735551875518,64.01706086735322,71.12564046146882,73.90147537659433,71.8769376355262,65.92583144492541,55.16384633158086,40.18547839707514,19.619362509448106,1.5632531700835368,0.0,0.0,0.0,0.0,0.0,0.0,0.0,0.0,0.0,0.0,0.0,0.0,4.984331436543298,33.26165050908658,51.7643752925544,52.0627136162896,64.7618164037473,56.26977955956664,72.96047071030134,29.52201431156871,43.40634290474916,20.716771785327193,11.78366997748488,1.666333521141543,0.0,0.0,0.0,0.0,0.0,0.0,0.0,0.0,0.0,0.0,0.0,0.0,0.3919035654647669,1.652060857148896,3.141373698492747,23.2035852546016,9.708384986665129,5.674375094298915,40.82378364785741,9.593608980390924,11.923423145746217,9.320842512975894,7.36310876865114,0.9215779847474465,0.0,0.0,0.0,0.0,0.0,0.0,0.0,0.0,0.0,0.0,0.0,0.0,6.740463801971911,21.888716084278993,43.97526715001162,57.8649479921893,74.3744556027951,77.57153233714803,75.20583828036679,68.84419476853306,57.740260413698,42.23142513413222,20.888638447571985,2.0126438544075764,0.0,0.0,0.0,0.0,0.0,0.0,0.0,0.0,0.0,0.0,0.0,0.0,0.6967835268632554,0.6914312778660127,9.683209593233654,9.545042276527058,23.375650148290735,16.32574706170046,33.07729526584822,14.024478224330466,11.017108982213127,9.276438669443214,4.548618721878879,0.1225070326035538,0.0,0.0,0.0,0.0,0.0,0.0,0.0,0.0,0.0,0.0,0.0,0.0,12.324841820539412,18.672410899824843,50.71890265509301,63.607316471897626,72.16695023859901,75.91709270266703,48.726874870897035,47.19870866646208,58.2106636311223,34.781887455747835,20.95385659276061,2.0007499677470375,0.0,0.0,0.0,0.0,0.0,0.0,0.0,0.0,0.0,0.0,0.0,0.0,15.194836671727524,39.2545835344436,57.79358467222607,70.86536257504734,78.0524418211225,79.93782108826231,77.44724122154541,70.46691737191928,59.01469036937477,43.20969731196158,21.5697616903322,2.09411697803227,0.0,0.0,0.0,0.0,0.0,0.0,0.0,0.0,0.0,0.0,0.0,0.0608570534130922,14.947642060632653,37.622345821728935,54.9340960875881,67.07616851644391,74.17364714967633,76.2762880798153,74.6944011539636,67.80843547184442,56.4174619856017,41.11102101070943,20.41169359248436,2.1268251663487527,0.0,0.0,0.0,0.0,0.0,0.0,0.0,0.0,0.0,0.0,0.0,0.0116956552161968,14.29387475719168,36.039665970099854,53.99705605018195,67.26904771178897,75.14359360684331,78.34800490463691,76.6317170595211,69.84665118257216,58.6059371311409,42.5896293540588,21.21195393329431,2.3347699514638465,0.0,0.0,0.0,0.0,0.0,0.0,0.0,0.0,0.0,0.0,0.0,0.1573957668078022,14.658224151892862,27.775991749801555,47.42370135579062,54.76282411967634,72.43039982812996,59.89939730547453,58.99209198471973,54.86253453618052,41.982049977149586,29.93968796479798,15.22358023115716,1.9932171728620292,0.0,0.0,0.0,0.0,0.0,0.0,0.0,0.0,0.0,0.0,0.0,0.1518452863662172,14.695095200540536,36.62880982268523,54.03908111638252,65.8639832342906,73.13431968698954,76.22970369039487,75.05260537389017,68.82437162409882,37.56565162864703,42.06966827554889,20.907668666228847,2.428533424637764,0.0,0.0,0.0,0.0,0.0,0.0,0.0,0.0,0.0,0.0,0.0,0.2081430165594361,14.87508935200336,36.13045597160864,52.888942276308384,65.43639800884422,73.39063294452416,77.47915648408451,77.3554600628149,71.31574441659309,60.27266711517112,44.46906167786834,22.3698237996978,2.6348923581981194,0.0,0.0,0.0,0.0,0.0,0.0,0.0,0.0,0.0,0.0,0.0,0.2598814235327817,16.983478994028278,40.10479819922782,57.642730543081555,70.0960263395548,77.52811965083707,80.11662585105908,77.55884552471012,70.49942732879144,58.914979952870574,42.675265338014675,21.44606526906259,2.704868058050958,0.0,0.0,0.0,0.0,0.0,0.0,0.0,0.0,0.0,0.0,0.0,0.2604761178658086,11.317627851836084,25.71160948842064,42.85862942403133,68.43762207618695,75.7361073939825,77.90000184042326,75.5670159719585,68.69215125072249,58.1052045027322,42.58427710506156,21.75550455368095,2.7861429502313095,0.0,0.0,0.0,0.0,0.0,0.0,0.0,0.0,0.0,0.0,0.0,0.3877407051335781,15.8575243901639,37.0684871662365,53.62120923170891,65.3608718285498,71.799230909344,73.45248115515896,71.31118509337323,55.80948614580378,53.89179515323618,39.100954165078306,19.914925592962508,2.870391314076796,0.0,0.0,0.0,0.0,0.0,0.0,0.0,0.0,0.0,0.0,0.0,0.3542395910397261,5.2069453485397235,25.608529137362627,16.935308753053096,40.10142826467399,51.41390209895718,51.32767142066827,61.98954965461996,26.161991329966387,15.7839805243129,26.1939065925055,10.411908382636025,2.7167619447114975,0.0,0.0,0.0,0.0,0.0,0.0,0.0,0.0,0.0,0.0,0.0,0.4773413179763068,15.592092486189536,35.853526643862416,33.446005752324936,43.544708452900096,48.83510923950794,30.63151570555268,34.416943366713625,18.434731398058403,13.627024178424112,3.137409069605901,2.3829401924390305,0.0592712018583537,0.0,0.0,0.0,0.0,0.0,0.0,0.0,0.0,0.0,0.0,0.0,0.5084636547380512,2.5034649105991607,3.0507819284283073,9.023098883573727,18.075932483798805,18.066615605914716,20.493761410442083,28.327868090850572,11.661361176325666,14.233414166667272,9.286944935993356,4.156715156414111,0.4345233259983658,0.0,0.0,0.0,0.0,0.0,0.0,0.0,0.0,0.0,0.0,0.0,0.7354386585100078,2.601787706992952,8.167135506903591,16.04980889117595,22.14344349025887,19.271268093182993,19.516480389834445,31.227399427245693,33.40873824078858,35.59800631210517,17.07149375531627,4.184467558622036,3.25099568721405,0.0,0.0,0.0,0.0,0.0,0.0,0.0,0.0,0.0,0.0,0.0,0.8924379624291252,10.998078763556263,16.446668242749276,22.87630513999243,23.556437225530928,35.98515232290572,43.5742449381071,45.78432731107963,52.99341024747679,55.05600842585863,39.47085404022108,19.915520287295536,3.374890339928,0.0,0.0,0.0,0.0,0.0,0.0,0.0,0.0,0.0,0.0,0.0,1.239144758583843,17.780171168840063,39.35171694217134,56.01029459892256,67.96444361854182,75.32973293308073,77.70335624763568,76.17657766331112,69.82226871491807,58.69652890120534,43.09730008301947,22.247316767094247,3.366564619265623,0.0,0.0,0.0,0.0,0.0,0.0,0.0,0.0,0.0,0.0,0.0,1.3695810489610898,19.45027108742411,41.77390696059015,58.14247201426856,69.22777261333543,75.39039175504949,77.06941208862895,75.03555746967675,68.08219309648116,56.549682358978,41.01368937153735,21.21036808173957,3.3760797285940543,0.0,0.0,0.0,0.0,0.0,0.0,0.0,0.0,0.0,0.0,0.0,1.49605271045149,19.379898924682585,41.11300332515285,56.63948120326507,68.01558733118215,74.05906937484646,75.1