clock {
timezone PST+8PDT;
stoptime '2000-01-02 00:00:00';
starttime '2000-01-01 00:00:00';
};

#set minimum_timestep=60;
#set profiler=1;
#set relax_naming_rules=1;
module generators;
module tape;
module climate;
module residential {
implicit_enduses NONE;
};

module powerflow {
solver_method FBS;
NR_iteration_limit 50;
};

object climate {
name Climate;
interpolate QUADRATIC;
tmyfile climate.tmy2;
};

object node {
phases ABCN;
nominal_voltage 2400.0;
name FRIENDSHIP;
bustype SWING;
};

object fuse {
phases ABCN;
from nodeRFRN1-R0001x1958175;
name RFRN1-R0001x1;
current_limit 9999.0 A;
to node958178RFRN1-R0001x1;
};

object fuse {
phases BN;
from nodeF28653x1978174;
name F28653x1;
current_limit 9999.0 A;
to node978192F28653x1;
};

object load {
phases BN;
load_class R;
name S1806-33-073;
parent nodeS1806-33-073T14100;
constant_power_C 0;
constant_power_B 1.60259;
constant_power_A 0;
nominal_voltage 120;
};

object load {
phases BN;
load_class R;
name S1806-32-065;
parent nodeS1806-32-065T14102;
constant_power_C 0;
constant_power_B 1.06969;
constant_power_A 0;
nominal_voltage 120;
};

object load {
phases BN;
load_class R;
name S1806-33-042;
parent nodeS1806-32-065T14102;
constant_power_C 0;
constant_power_B 0.776014;
constant_power_A 0;
nominal_voltage 120;
};

object fuse {
phases CN;
from nodeR2911x1978200;
name R2911x1;
current_limit 9999.0 A;
to node839461R2911x1;
};

object fuse {
phases CN;
from nodeFFRN1-F008x1839505;
name FFRN1-F008x1;
current_limit 9999.0 A;
to node839506FFRN1-F008x1;
};

object load {
phases CN;
load_class R;
name S1806-33-047;
parent nodeS1806-33-0471806-0087;
constant_power_C 4.65414;
constant_power_B 0;
constant_power_A 0;
nominal_voltage 120;
};

object load {
phases CN;
load_class R;
name S1806-33-059;
parent nodeS1806-33-0471806-0087;
constant_power_C 3.44247;
constant_power_B 0;
constant_power_A 0;
nominal_voltage 120;
};

object load {
phases CN;
load_class R;
name S1806-33-050;
parent nodeS1806-33-0501806-0085;
constant_power_C 2.82205;
constant_power_B 0;
constant_power_A 0;
nominal_voltage 120;
};

object load {
phases CN;
load_class R;
name S1806-33-032;
parent nodeS1806-33-0321806-33-031;
constant_power_C 2.90762;
constant_power_B 0;
constant_power_A 0;
nominal_voltage 120;
};

object load {
phases CN;
load_class R;
name S1806-33-044;
parent nodeS1806-33-0441806-33-030;
constant_power_C 0.702108;
constant_power_B 0;
constant_power_A 0;
nominal_voltage 120;
};

object load {
phases CN;
load_class R;
name S1806-33-069;
parent nodeS1806-33-069T4303;
constant_power_C 5.19287;
constant_power_B 0;
constant_power_A 0;
nominal_voltage 120;
};

object load {
phases CN;
load_class R;
name S1806-33-068;
parent nodeS1806-33-068T4006;
constant_power_C 0.705998;
constant_power_B 0;
constant_power_A 0;
nominal_voltage 120;
};

object load {
phases CN;
load_class R;
name S1806-33-077;
parent nodeS1806-33-077T28678;
constant_power_C 2.0402;
constant_power_B 0;
constant_power_A 0;
nominal_voltage 120;
};

object load {
phases CN;
load_class R;
name S1806-33-016;
parent nodeS1806-33-0161806-33-025;
constant_power_C 0.525122;
constant_power_B 0;
constant_power_A 0;
nominal_voltage 120;
};

object load {
phases CN;
load_class R;
name S1806-33-023;
parent nodeS1806-33-0161806-33-025;
constant_power_C 1.01913;
constant_power_B 0;
constant_power_A 0;
nominal_voltage 120;
};

object load {
phases CN;
load_class R;
name S1806-33-026;
parent nodeS1806-33-0161806-33-025;
constant_power_C 0.0544571;
constant_power_B 0;
constant_power_A 0;
nominal_voltage 120;
};

object load {
phases CN;
load_class R;
name S1806-33-013;
parent nodeS1806-33-0131806-33-024;
constant_power_C 0.108914;
constant_power_B 0;
constant_power_A 0;
nominal_voltage 120;
};

object load {
phases CN;
load_class R;
name S1806-33-031;
parent nodeS1806-33-0131806-33-024;
constant_power_C 0.529012;
constant_power_B 0;
constant_power_A 0;
nominal_voltage 120;
};

object load {
phases CN;
load_class R;
name S1806-33-037;
parent nodeS1806-33-0131806-33-024;
constant_power_C 0.490114;
constant_power_B 0;
constant_power_A 0;
nominal_voltage 120;
};

object load {
phases CN;
load_class R;
name S1806-33-038;
parent nodeS1806-33-0131806-33-024;
constant_power_C 0;
constant_power_B 0;
constant_power_A 0;
nominal_voltage 120;
};

object load {
phases CN;
load_class R;
name S1806-33-041;
parent nodeS1806-33-0411806-33-022;
constant_power_C 0.532902;
constant_power_B 0;
constant_power_A 0;
nominal_voltage 120;
};

object load {
phases CN;
load_class R;
name S1806-33-029;
parent nodeS1806-33-0291806-33-021;
constant_power_C 3.01653;
constant_power_B 0;
constant_power_A 0;
nominal_voltage 120;
};

object load {
phases CN;
load_class R;
name S1806-33-046;
parent nodeS1806-33-0291806-33-021;
constant_power_C 0;
constant_power_B 0;
constant_power_A 0;
nominal_voltage 120;
};

object load {
phases CN;
load_class R;
name S1806-33-056;
parent nodeS1806-33-0561806-33-089;
constant_power_C 1.29141;
constant_power_B 0;
constant_power_A 0;
nominal_voltage 120;
};

object load {
phases CN;
load_class R;
name S1806-33-022;
parent nodeS1806-33-0221806-33-020;
constant_power_C 0.423987;
constant_power_B 0;
constant_power_A 0;
nominal_voltage 120;
};

object load {
phases CN;
load_class R;
name S1806-33-045;
parent nodeS1806-33-0221806-33-020;
constant_power_C 0.2859;
constant_power_B 0;
constant_power_A 0;
nominal_voltage 120;
};

object load {
phases CN;
load_class R;
name S1806-33-067;
parent nodeS1806-33-0221806-33-020;
constant_power_C 0.291734;
constant_power_B 0;
constant_power_A 0;
nominal_voltage 120;
};

object load {
phases CN;
load_class R;
name S1806-33-015;
parent nodeS1806-33-0151806-33-017;
constant_power_C 0.213939;
constant_power_B 0;
constant_power_A 0;
nominal_voltage 120;
};

object load {
phases CN;
load_class R;
name S1806-33-033;
parent nodeS1806-33-0331806-33-015;
constant_power_C 1.05219;
constant_power_B 0;
constant_power_A 0;
nominal_voltage 120;
};

object load {
phases CN;
load_class R;
name S1806-33-043;
parent nodeS1806-33-0431806-33-014;
constant_power_C 2.96402;
constant_power_B 0;
constant_power_A 0;
nominal_voltage 120;
};

object load {
phases CN;
load_class R;
name S1806-33-055;
parent nodeS1806-33-0551806-33-013;
constant_power_C 1.21751;
constant_power_B 0;
constant_power_A 0;
nominal_voltage 120;
};

object load {
phases CN;
load_class R;
name S1806-33-020;
parent nodeS1806-33-0201806-33-012;
constant_power_C 1.32058;
constant_power_B 0;
constant_power_A 0;
nominal_voltage 120;
};

object load {
phases CN;
load_class R;
name S1806-33-064;
parent nodeS1806-33-0201806-33-012;
constant_power_C 1.59676;
constant_power_B 0;
constant_power_A 0;
nominal_voltage 120;
};

object load {
phases CN;
load_class R;
name S1806-33-054;
parent nodeS1806-33-0541806-33-010;
constant_power_C 1.98379;
constant_power_B 0;
constant_power_A 0;
nominal_voltage 120;
};

object load {
phases CN;
load_class R;
name S1806-33-058;
parent nodeS1806-33-0581806-33-009;
constant_power_C 1.51896;
constant_power_B 0;
constant_power_A 0;
nominal_voltage 120;
};

object load {
phases CN;
load_class R;
name S1806-33-076;
parent nodeS1806-33-0761806-33-081;
constant_power_C 0.943275;
constant_power_B 0;
constant_power_A 0;
nominal_voltage 120;
};

object load {
phases CN;
load_class R;
name S1806-33-065;
parent nodeS1806-33-0651806-33-008;
constant_power_C 1.83404;
constant_power_B 0;
constant_power_A 0;
nominal_voltage 120;
};

object load {
phases CN;
load_class R;
name S1806-33-007;
parent nodeS1806-33-0071806-33-007;
constant_power_C 2.76175;
constant_power_B 0;
constant_power_A 0;
nominal_voltage 120;
};

object load {
phases CN;
load_class R;
name S1806-33-009;
parent nodeS1806-33-0071806-33-007;
constant_power_C 0.466775;
constant_power_B 0;
constant_power_A 0;
nominal_voltage 120;
};

object load {
phases CN;
load_class R;
name S1806-33-010;
parent nodeS1806-33-0101806-33-006;
constant_power_C 4.9342;
constant_power_B 0;
constant_power_A 0;
nominal_voltage 120;
};

object load {
phases CN;
load_class R;
name S1806-33-006;
parent nodeS1806-33-0061806-33-005;
constant_power_C 2.77148;
constant_power_B 0;
constant_power_A 0;
nominal_voltage 120;
};

object fuse {
phases BN;
from nodeR2909x1841713;
name R2909x1;
current_limit 9999.0 A;
to node841714R2909x1;
};

object fuse {
phases BN;
from nodeFFRN1-F011x1841723;
name FFRN1-F011x1;
current_limit 9999.0 A;
to node841724FFRN1-F011x1;
};

object load {
phases BN;
load_class R;
name S1806-33-021;
parent nodeS1806-33-0211806-0099;
constant_power_C 0;
constant_power_B 2.61783;
constant_power_A 0;
nominal_voltage 120;
};

object load {
phases BN;
load_class R;
name S1806-28-001;
parent nodeS1806-28-0011806-28-011;
constant_power_C 0;
constant_power_B 1.71151;
constant_power_A 0;
nominal_voltage 120;
};

object load {
phases BN;
load_class R;
name S1806-28-010;
parent nodeS1806-28-0011806-28-011;
constant_power_C 0;
constant_power_B 1.53063;
constant_power_A 0;
nominal_voltage 120;
};

object fuse {
phases BN;
from nodeF18526x1841727;
name F18526x1;
current_limit 9999.0 A;
to node939255F18526x1;
};

object load {
phases BN;
load_class R;
name S1806-33-034;
parent nodeS1806-33-0341806-0098;
constant_power_C 0;
constant_power_B 0.0136143;
constant_power_A 0;
nominal_voltage 120;
};

object load {
phases BN;
load_class R;
name S1806-33-036;
parent nodeS1806-33-0341806-0098;
constant_power_C 0;
constant_power_B 0.859644;
constant_power_A 0;
nominal_voltage 120;
};

object load {
phases BN;
load_class R;
name S1806-33-048;
parent nodeS1806-33-0341806-0098;
constant_power_C 0;
constant_power_B 0.834361;
constant_power_A 0;
nominal_voltage 120;
};

object fuse {
phases BN;
from nodeF18527x1841734;
name F18527x1;
current_limit 9999.0 A;
to node939275F18527x1;
};

object load {
phases BN;
load_class R;
name S1806-33-024;
parent nodeS1806-33-024T18549;
constant_power_C 0;
constant_power_B 2.00713;
constant_power_A 0;
nominal_voltage 120;
};

object load {
phases BN;
load_class R;
name S1806-33-053;
parent nodeS1806-33-024T18549;
constant_power_C 0;
constant_power_B 6.22367;
constant_power_A 0;
nominal_voltage 120;
};

object load {
phases BN;
load_class R;
name S1806-33-027;
parent nodeS1806-33-0271806-0097;
constant_power_C 0;
constant_power_B 5.19676;
constant_power_A 0;
nominal_voltage 120;
};

object load {
phases BN;
load_class R;
name S1806-27-011;
parent nodeS1806-27-011T10512;
constant_power_C 0;
constant_power_B 3.58055;
constant_power_A 0;
nominal_voltage 120;
};

object load {
phases BN;
load_class R;
name S1806-27-008;
parent nodeS1806-27-008T10513;
constant_power_C 0;
constant_power_B 2.13161;
constant_power_A 0;
nominal_voltage 120;
};

object load {
phases BN;
load_class R;
name S1806-28-013;
parent nodeS1806-28-013T10515;
constant_power_C 0;
constant_power_B 78.0712;
constant_power_A 0;
nominal_voltage 120;
};

object fuse {
phases BN;
from nodeFFRN1-F081x1841751;
name FFRN1-F081x1;
current_limit 9999.0 A;
to node841752FFRN1-F081x1;
};

object load {
phases BN;
load_class R;
name S1806-33-061;
parent nodeS1806-33-0611806-0198;
constant_power_C 0;
constant_power_B 5.78218;
constant_power_A 0;
nominal_voltage 120;
};

object fuse {
phases BN;
from nodeFFRN1-F140x1841763;
name FFRN1-F140x1;
current_limit 9999.0 A;
to node841764FFRN1-F140x1;
};

object load {
phases BN;
load_class R;
name S1806-34-005;
parent nodeS1806-34-0051806-0062;
constant_power_C 0;
constant_power_B 2.28525;
constant_power_A 0;
nominal_voltage 120;
};

object fuse {
phases BN;
from nodeFFRN1-F176x1841767;
name FFRN1-F176x1;
current_limit 9999.0 A;
to node841768FFRN1-F176x1;
};

object load {
phases BN;
load_class R;
name S1806-33-049;
parent nodeS1806-33-0491806-0088;
constant_power_C 0;
constant_power_B 2.32415;
constant_power_A 0;
nominal_voltage 120;
};

object fuse {
phases BN;
from nodeFFRN1-F196x1841771;
name FFRN1-F196x1;
current_limit 9999.0 A;
to node841772FFRN1-F196x1;
};

object load {
phases BN;
load_class R;
name S1806-33-060;
parent nodeS1806-33-0601806-0190;
constant_power_C 0;
constant_power_B 3.08266;
constant_power_A 0;
nominal_voltage 120;
};

object load {
phases BN;
load_class R;
name S1806-33-062;
parent nodeS1806-33-0601806-0190;
constant_power_C 0;
constant_power_B 1.64733;
constant_power_A 0;
nominal_voltage 120;
};

object load {
phases BN;
load_class R;
name S1806-33-004;
parent nodeS1806-33-0041806-33-057;
constant_power_C 0;
constant_power_B 0.394814;
constant_power_A 0;
nominal_voltage 120;
};

object load {
phases BN;
load_class R;
name S1806-33-072;
parent nodeS1806-33-0721806-33-066;
constant_power_C 0;
constant_power_B 0.145867;
constant_power_A 0;
nominal_voltage 120;
};

object load {
phases BN;
load_class R;
name S1806-33-014;
parent nodeS1806-33-0141806-33-052;
constant_power_C 0;
constant_power_B 1.08914;
constant_power_A 0;
nominal_voltage 120;
};

object load {
phases BN;
load_class R;
name S1806-34-003;
parent nodeS1806-34-0031806-33-051;
constant_power_C 0;
constant_power_B 0.770179;
constant_power_A 0;
nominal_voltage 120;
};

object load {
phases BN;
load_class R;
name S1806-33-018;
parent nodeS1806-33-0181806-33-050;
constant_power_C 0;
constant_power_B 0.287845;
constant_power_A 0;
nominal_voltage 120;
};

object fuse {
phases BN;
from nodeFFRN1-F217x1841777;
name FFRN1-F217x1;
current_limit 9999.0 A;
to node841778FFRN1-F217x1;
};

object load {
phases BN;
load_class R;
name S1806-34-006;
parent nodeS1806-34-0061806-0245;
constant_power_C 0;
constant_power_B 19.5717;
constant_power_A 0;
nominal_voltage 120;
};

object load {
phases BN;
load_class R;
name S1806-27-003;
parent nodeS1806-27-003T10500;
constant_power_C 0;
constant_power_B 2.86094;
constant_power_A 0;
nominal_voltage 120;
};

object load {
phases BN;
load_class R;
name S1806-27-001;
parent nodeS1806-27-001T10502;
constant_power_C 0;
constant_power_B 4.14069;
constant_power_A 0;
nominal_voltage 120;
};

object load {
phases BN;
load_class R;
name S1806-27-005;
parent nodeS1806-27-005T7804;
constant_power_C 0;
constant_power_B 0.0875204;
constant_power_A 0;
nominal_voltage 120;
};

object load {
phases BN;
load_class R;
name S1806-27-012;
parent nodeS1806-27-012T12908;
constant_power_C 0;
constant_power_B 2.21718;
constant_power_A 0;
nominal_voltage 120;
};

object load {
phases BN;
load_class R;
name S1806-34-002;
parent nodeS1806-34-002T4020;
constant_power_C 0;
constant_power_B 3.13712;
constant_power_A 0;
nominal_voltage 120;
};

object load {
phases BN;
load_class R;
name S1806-34-001;
parent nodeS1806-34-001T10505;
constant_power_C 0;
constant_power_B 5.96305;
constant_power_A 0;
nominal_voltage 120;
};

object load {
phases BN;
load_class R;
name S1806-27-010;
parent nodeS1806-27-010T10506;
constant_power_C 0;
constant_power_B 0.466775;
constant_power_A 0;
nominal_voltage 120;
};

object load {
phases BN;
load_class R;
name S1806-27-002;
parent nodeS1806-27-0021806-27-048;
constant_power_C 0;
constant_power_B 1.34392;
constant_power_A 0;
nominal_voltage 120;
};

object load {
phases BN;
load_class R;
name S1806-35-015;
parent nodeS1806-35-015T7903;
constant_power_C 0;
constant_power_B 0.904377;
constant_power_A 0;
nominal_voltage 120;
};

object load {
phases BN;
load_class R;
name S1806-35-032;
parent nodeS1806-35-032T12192;
constant_power_C 0;
constant_power_B 2.54392;
constant_power_A 0;
nominal_voltage 120;
};

object load {
phases BN;
load_class R;
name S1806-35-031;
parent nodeS1806-35-0311806-0180;
constant_power_C 0;
constant_power_B 4.3624;
constant_power_A 0;
nominal_voltage 120;
};

object load {
phases BN;
load_class R;
name S1806-35-033;
parent nodeS1806-35-0311806-0180;
constant_power_C 0;
constant_power_B 0.266451;
constant_power_A 0;
nominal_voltage 120;
};

object load {
phases BN;
load_class R;
name S1806-35-052;
parent nodeS1806-35-052T28536;
constant_power_C 0;
constant_power_B 1.2214;
constant_power_A 0;
nominal_voltage 120;
};

object load {
phases BN;
load_class R;
name S1806-35-035;
parent nodeS1806-35-0351806-0052;
constant_power_C 0;
constant_power_B 2.57115;
constant_power_A 0;
nominal_voltage 120;
};

object load {
phases BN;
load_class R;
name S1806-35-026;
parent nodeS1806-35-026T15654;
constant_power_C 0;
constant_power_B 1.36337;
constant_power_A 0;
nominal_voltage 120;
};

object load {
phases BN;
load_class R;
name S1806-35-034;
parent nodeS1806-35-026T15654;
constant_power_C 0;
constant_power_B 0.657375;
constant_power_A 0;
nominal_voltage 120;
};

object load {
phases BN;
load_class R;
name S1806-35-003;
parent nodeS1806-35-003T15652;
constant_power_C 0;
constant_power_B 0.355916;
constant_power_A 0;
nominal_voltage 120;
};

object load {
phases BN;
load_class R;
name S1806-35-018;
parent nodeS1806-35-003T15652;
constant_power_C 0;
constant_power_B 2.40195;
constant_power_A 0;
nominal_voltage 120;
};

object load {
phases BN;
load_class R;
name S1806-35-004;
parent nodeS1806-35-004T15655;
constant_power_C 0;
constant_power_B 1.81653;
constant_power_A 0;
nominal_voltage 120;
};

object load {
phases BN;
load_class R;
name S1806-35-039;
parent nodeS1806-35-004T15655;
constant_power_C 0;
constant_power_B 2.46029;
constant_power_A 0;
nominal_voltage 120;
};

object load {
phases BN;
load_class R;
name S1806-35-045;
parent nodeS1806-35-004T15655;
constant_power_C 0;
constant_power_B 1.24279;
constant_power_A 0;
nominal_voltage 120;
};

object load {
phases BN;
load_class R;
name S1806-35-046;
parent nodeS1806-35-046T5158;
constant_power_C 0;
constant_power_B 0;
constant_power_A 0;
nominal_voltage 120;
};

object load {
phases BN;
load_class R;
name S1806-35-044;
parent nodeS1806-35-044T15656;
constant_power_C 0;
constant_power_B 1.76791;
constant_power_A 0;
nominal_voltage 120;
};

object load {
phases BN;
load_class R;
name S1806-26-004;
parent nodeS1806-26-004T15660;
constant_power_C 0;
constant_power_B 0.606808;
constant_power_A 0;
nominal_voltage 120;
};

object load {
phases BN;
load_class R;
name S1806-35-048;
parent nodeS1806-35-048T10509;
constant_power_C 0;
constant_power_B 0.719612;
constant_power_A 0;
nominal_voltage 120;
};

object load {
phases BN;
load_class R;
name S1806-34-007;
parent nodeS1806-34-007T4048;
constant_power_C 0;
constant_power_B 2.28525;
constant_power_A 0;
nominal_voltage 120;
};

object load {
phases BN;
load_class R;
name S1806-33-001;
parent nodeS1806-33-0011806-28-014;
constant_power_C 0;
constant_power_B 0.879093;
constant_power_A 0;
nominal_voltage 120;
};

object load {
phases BN;
load_class R;
name S1806-33-063;
parent nodeS1806-33-0631806-28-009;
constant_power_C 0;
constant_power_B 2.8376;
constant_power_A 0;
nominal_voltage 120;
};

object fuse {
phases BN;
from nodeF21679x1842003;
name F21679x1;
current_limit 9999.0 A;
to node842004F21679x1;
};

object load {
phases BN;
load_class R;
name S1806-28-004;
parent nodeS1806-28-004T18597;
constant_power_C 0;
constant_power_B 2.95624;
constant_power_A 0;
nominal_voltage 120;
};

object load {
phases BN;
load_class R;
name S1806-28-006;
parent nodeS1806-28-004T18597;
constant_power_C 0;
constant_power_B 3.87034;
constant_power_A 0;
nominal_voltage 120;
};

object load {
phases BN;
load_class R;
name S1806-28-008;
parent nodeS1806-28-004T18597;
constant_power_C 0;
constant_power_B 2.83566;
constant_power_A 0;
nominal_voltage 120;
};

object load {
phases BN;
load_class R;
name S1806-28-011;
parent nodeS1806-28-004T18597;
constant_power_C 0;
constant_power_B 0.219773;
constant_power_A 0;
nominal_voltage 120;
};

object load {
phases BN;
load_class R;
name S1806-28-007;
parent nodeS1806-28-0071806-0100;
constant_power_C 0;
constant_power_B 1.20584;
constant_power_A 0;
nominal_voltage 120;
};

object load {
phases BN;
load_class R;
name S1806-33-035;
parent nodeS1806-33-0351806-28-004;
constant_power_C 0;
constant_power_B 0.739061;
constant_power_A 0;
nominal_voltage 120;
};

object fuse {
phases BN;
from nodeF10787x1925819;
name F10787x1;
current_limit 9999.0 A;
to node925823F10787x1;
};

object load {
phases BN;
load_class R;
name S1806-28-015;
parent nodeS1806-28-015T10789;
constant_power_C 0;
constant_power_B 2.02269;
constant_power_A 0;
nominal_voltage 120;
};

object fuse {
phases AN;
from nodeF28659x1979024;
name F28659x1;
current_limit 9999.0 A;
to node839562F28659x1;
};

object load {
phases AN;
load_class R;
name S1806-29-012;
parent nodeS1806-29-012T28660;
constant_power_C 0;
constant_power_B 0;
constant_power_A 3.43274;
nominal_voltage 120;
};

object fuse {
phases AN;
from nodeR28918x1976753;
name R28918x1;
current_limit 9999.0 A;
to node976756R28918x1;
};

object fuse {
phases AN;
from nodeF28814x1976774;
name F28814x1;
current_limit 9999.0 A;
to node976760F28814x1;
};

object load {
phases AN;
load_class R;
name S1806-20-018;
parent nodeS1806-20-0181806-20-027;
constant_power_C 0;
constant_power_B 0;
constant_power_A 3.33355;
nominal_voltage 120;
};

object load {
phases AN;
load_class R;
name S1806-20-066;
parent nodeS1806-20-066T3935;
constant_power_C 0;
constant_power_B 0;
constant_power_A 0.46483;
nominal_voltage 120;
};

object load {
phases AN;
load_class R;
name S1806-20-065;
parent nodeS1806-20-065T4205;
constant_power_C 0;
constant_power_B 0;
constant_power_A 1.9799;
nominal_voltage 120;
};

object load {
phases AN;
load_class R;
name S1806-20-005;
parent nodeS1806-20-005T28813;
constant_power_C 0;
constant_power_B 0;
constant_power_A 1.31281;
nominal_voltage 120;
};

object load {
phases AN;
load_class R;
name S1806-20-012;
parent nodeS1806-20-012T28811;
constant_power_C 0;
constant_power_B 0;
constant_power_A 1.85349;
nominal_voltage 120;
};

object load {
phases AN;
load_class R;
name S1806-20-019;
parent nodeS1806-20-019T28810;
constant_power_C 0;
constant_power_B 0;
constant_power_A 1.72707;
nominal_voltage 120;
};

object load {
phases AN;
load_class R;
name S1806-20-047;
parent nodeS1806-20-047T28809;
constant_power_C 0;
constant_power_B 0;
constant_power_A 0.093355;
nominal_voltage 120;
};

object load {
phases AN;
load_class R;
name S1806-20-013;
parent nodeS1806-20-013T28808;
constant_power_C 0;
constant_power_B 0;
constant_power_A 0.0019449;
nominal_voltage 120;
};

object load {
phases AN;
load_class R;
name S1806-20-015;
parent nodeS1806-20-013T28808;
constant_power_C 0;
constant_power_B 0;
constant_power_A 1.10081;
nominal_voltage 120;
};

object load {
phases AN;
load_class R;
name S1806-20-001;
parent nodeS1806-20-001T28806;
constant_power_C 0;
constant_power_B 0;
constant_power_A 1.8107;
nominal_voltage 120;
};

object fuse {
phases AN;
from nodeF28815x1976772;
name F28815x1;
current_limit 9999.0 A;
to node976771F28815x1;
};

object load {
phases AN;
load_class R;
name S1806-20-010;
parent nodeS1806-20-0101806-20-026;
constant_power_C 0;
constant_power_B 0;
constant_power_A 2.61005;
nominal_voltage 120;
};

object load {
phases AN;
load_class R;
name S1806-20-039;
parent nodeS1806-20-0101806-20-026;
constant_power_C 0;
constant_power_B 0;
constant_power_A 0.106969;
nominal_voltage 120;
};

object load {
phases AN;
load_class R;
name S1806-20-046;
parent nodeS1806-20-0461806-20-025;
constant_power_C 0;
constant_power_B 0;
constant_power_A 0.47261;
nominal_voltage 120;
};

object load {
phases AN;
load_class R;
name S1806-20-034;
parent nodeS1806-20-0341806-20-024;
constant_power_C 0;
constant_power_B 0;
constant_power_A 2.10632;
nominal_voltage 120;
};

object load {
phases AN;
load_class R;
name S1806-20-007;
parent nodeS1806-20-007T28805;
constant_power_C 0;
constant_power_B 0;
constant_power_A 0.542626;
nominal_voltage 120;
};

object load {
phases AN;
load_class R;
name S1806-20-008;
parent nodeS1806-20-007T28805;
constant_power_C 0;
constant_power_B 0;
constant_power_A 2.61005;
nominal_voltage 120;
};

object load {
phases AN;
load_class R;
name S1806-29-011;
parent nodeS1806-29-0111806-20-169;
constant_power_C 0;
constant_power_B 0;
constant_power_A 2.34166;
nominal_voltage 120;
};

object fuse {
phases AN;
from nodeF28919x1976763;
name F28919x1;
current_limit 9999.0 A;
to node976775F28919x1;
};

object load {
phases AN;
load_class R;
name S1806-29-004;
parent nodeS1806-29-004T16939;
constant_power_C 0;
constant_power_B 0;
constant_power_A 1.89044;
nominal_voltage 120;
};

object load {
phases AN;
load_class R;
name S1806-29-013;
parent nodeS1806-29-0131806-0229;
constant_power_C 0;
constant_power_B 0;
constant_power_A 0.56791;
nominal_voltage 120;
};

object load {
phases AN;
load_class R;
name S1806-29-009;
parent nodeS1806-29-009T16942;
constant_power_C 0;
constant_power_B 0;
constant_power_A 3.00292;
nominal_voltage 120;
};

object load {
phases AN;
load_class R;
name S1806-29-014;
parent nodeS1806-29-014T28801;
constant_power_C 0;
constant_power_B 0;
constant_power_A 4.16986;
nominal_voltage 120;
};

object fuse {
phases AN;
from nodeF16133x1979033;
name F16133x1;
current_limit 9999.0 A;
to node979034F16133x1;
};

object load {
phases AN;
load_class R;
name S1806-21-018;
parent nodeS1806-21-018T16137;
constant_power_C 0;
constant_power_B 0;
constant_power_A 2.19579;
nominal_voltage 120;
};

object load {
phases AN;
load_class R;
name S1806-21-014;
parent nodeS1806-21-014T16135;
constant_power_C 0;
constant_power_B 0;
constant_power_A 1.1047;
nominal_voltage 120;
};

object load {
phases AN;
load_class R;
name S1806-21-013;
parent nodeS1806-21-013T12260;
constant_power_C 0;
constant_power_B 0;
constant_power_A 2.26969;
nominal_voltage 120;
};

object load {
phases AN;
load_class R;
name S1806-21-025;
parent nodeS1806-21-013T12260;
constant_power_C 0;
constant_power_B 0;
constant_power_A 0.00388979;
nominal_voltage 120;
};

object fuse {
phases CN;
from nodeF28663x1978946;
name F28663x1;
current_limit 9999.0 A;
to node841704F28663x1;
};

object load {
phases CN;
load_class R;
name S1806-21-021;
parent nodeS1806-21-021T28664;
constant_power_C 3.09044;
constant_power_B 0;
constant_power_A 0;
nominal_voltage 120;
};

object fuse {
phases ABCN;
from nodeF28670x1978962;
name F28670x1;
current_limit 9999.0 A;
to node839697F28670x1;
};

object load {
phases ABCN;
load_class R;
name S1806-21-016;
parent nodeS1806-21-016T28671;
constant_power_C 39.5189;
constant_power_B 39.5189;
constant_power_A 39.5189;
nominal_voltage 120;
};

object fuse {
phases CN;
from nodeF28672x1839701;
name F28672x1;
current_limit 9999.0 A;
to node979056F28672x1;
};

object load {
phases CN;
load_class R;
name S1806-21-012;
parent nodeS1806-21-0121806-0253;
constant_power_C 0.38509;
constant_power_B 0;
constant_power_A 0;
nominal_voltage 120;
};

object load {
phases CN;
load_class R;
name S1806-21-003;
parent nodeS1806-21-0031806-21-004;
constant_power_C 0.387034;
constant_power_B 0;
constant_power_A 0;
nominal_voltage 120;
};

object load {
phases CN;
load_class R;
name S1806-21-010;
parent nodeS1806-21-0101806-21-003;
constant_power_C 2.4389;
constant_power_B 0;
constant_power_A 0;
nominal_voltage 120;
};

object load {
phases CN;
load_class R;
name S1806-21-026;
parent nodeS1806-21-026T28682;
constant_power_C 1.97018;
constant_power_B 0;
constant_power_A 0;
nominal_voltage 120;
};

object fuse {
phases BN;
from nodeF6839x1917154;
name F6839x1;
current_limit 9999.0 A;
to node841691F6839x1;
};

object load {
phases BN;
load_class R;
name S1806-17-006;
parent nodeS1806-17-006T6840;
constant_power_C 0;
constant_power_B 4.10373;
constant_power_A 0;
nominal_voltage 120;
};

object load {
phases BN;
load_class R;
name S1806-17-015;
parent nodeS1806-17-006T6840;
constant_power_C 0;
constant_power_B 2.70341;
constant_power_A 0;
nominal_voltage 120;
};

object fuse {
phases BN;
from nodeF6834x1917156;
name F6834x1;
current_limit 9999.0 A;
to node917157F6834x1;
};

object load {
phases BN;
load_class R;
name S1806-17-008;
parent nodeS1806-17-008T6837;
constant_power_C 0;
constant_power_B 2.40973;
constant_power_A 0;
nominal_voltage 120;
};

object load {
phases BN;
load_class R;
name S1806-20-043;
parent nodeS1806-20-043T6835;
constant_power_C 0;
constant_power_B 6.96078;
constant_power_A 0;
nominal_voltage 120;
};

object load {
phases BN;
load_class R;
name S1806-17-043;
parent nodeS1806-17-043T11973;
constant_power_C 0;
constant_power_B 0.392869;
constant_power_A 0;
nominal_voltage 120;
};

object load {
phases BN;
load_class R;
name S1806-17-044;
parent nodeS1806-17-043T11973;
constant_power_C 0;
constant_power_B 0;
constant_power_A 0;
nominal_voltage 120;
};

object load {
phases BN;
load_class R;
name S1806-20-003;
parent nodeS1806-20-003T6832;
constant_power_C 0;
constant_power_B 1.38088;
constant_power_A 0;
nominal_voltage 120;
};

object fuse {
phases BN;
from nodeF6842x1917174;
name F6842x1;
current_limit 9999.0 A;
to node917175F6842x1;
};

object load {
phases BN;
load_class R;
name S1806-17-032;
parent nodeS1806-17-032T6844;
constant_power_C 0;
constant_power_B 1.71929;
constant_power_A 0;
nominal_voltage 120;
};

object load {
phases BN;
load_class R;
name S1806-17-011;
parent nodeS1806-17-011T6846;
constant_power_C 0;
constant_power_B 0.317018;
constant_power_A 0;
nominal_voltage 120;
};

object load {
phases ABCN;
load_class R;
name S1806-17-023;
parent nodeS1806-17-0231806-0073;
constant_power_C 0.414911;
constant_power_B 0.414911;
constant_power_A 0.414911;
nominal_voltage 120;
};

object load {
phases ABCN;
load_class R;
name S1806-17-047;
parent nodeS1806-17-047T28511;
constant_power_C 4.9342;
constant_power_B 4.9342;
constant_power_A 4.9342;
nominal_voltage 120;
};

object load {
phases ABCN;
load_class R;
name S1806-17-027;
parent nodeS1806-17-027T25810;
constant_power_C 35.004;
constant_power_B 35.004;
constant_power_A 35.004;
nominal_voltage 120;
};

object load {
phases ABCN;
load_class R;
name S1806-17-028;
parent nodeS1806-17-0281806-0192;
constant_power_C 0.250892;
constant_power_B 0.250892;
constant_power_A 0.250892;
nominal_voltage 120;
};

object load {
phases ABCN;
load_class R;
name S1806-17-036;
parent nodeS1806-17-0361806-0260;
constant_power_C 3.08072;
constant_power_B 3.08072;
constant_power_A 3.08072;
nominal_voltage 120;
};

object load {
phases ABCN;
load_class R;
name S1806-17-042;
parent nodeS1806-17-042T4344;
constant_power_C 7.40729;
constant_power_B 7.40729;