clock {
	timezone PST+8PDT;
	starttime '2000-01-01 00:00:00';
	stoptime '2000-01-01 00:00:00';
};

#set minimum_timestep=60;
#set profiler=1;
#set relax_naming_rules=1;
module generators;
module tape;
module residential {
	implicit_enduses NONE;
};

module powerflow {
	solver_method NR;
	NR_iteration_limit 50;
};

object node {
	phases ABCN;
	name GILMORE_CITY_SUBx;
	bustype SWING;
	longitude 0;
	nominal_voltage 7200.0;
	latitude 0;
};

object fuse {
	phases ACB;
	from GILMORE_CITY_SUBx;
	name RECL_650;
	current_limit 9999.0 A;
	longitude 0;
	to nodePROH19109RECL_650;
	latitude 0;
};

object overhead_line {
	phases ACB;
	from nodePROH19109RECL_650;
	name PROH19109;
	longitude 0;
	to node288-25-830PROH19109;
	length 1561.98;
	latitude 0;
	configuration PROH15855-LINECONFIG;
};

object load {
	phases B;
	load_class R;
	name 288-25-830;
	parent node288-25-830PROH19109;
	longitude 0;
	constant_power_C 0.0+0.0j;
	constant_power_A 0.0+0.0j;
	latitude 0;
	nominal_voltage 7200.0;
	constant_power_B 489.093+161.276j;
};

object overhead_line {
	phases ACB;
	from node288-25-830PROH19109;
	name PROH19110;
	to nodePRUG2977PROH19110;
	longitude 0;
	length 122.15;
	latitude 0;
	configuration PROH15855-LINECONFIG;
};

object overhead_line {
	phases ACB;
	from nodePRUG2977PROH19110;
	name PROH19111;
	longitude 0;
	to nodePROH19112PROH19111;
	length 1168.1;
	latitude 0;
	configuration PROH15855-LINECONFIG;
};

object overhead_line {
	phases ACB;
	from nodePROH19112PROH19111;
	name PROH19112;
	longitude 0;
	to node288-25-831PROH19112;
	length 76.6279;
	latitude 0;
	configuration PROH15855-LINECONFIG;
};

object load {
	phases ABC;
	load_class R;
	name 288-25-831;
	parent node288-25-831PROH19112;
	longitude 0;
	constant_power_C 423922.0+139786.0j;
	constant_power_A 423922.0+139786.0j;
	latitude 0;
	nominal_voltage 7200.0;
	constant_power_B 423922.0+139786.0j;
};

object underground_line {
	phases ACB;
	from node288-25-831PROH19112;
	name PRUG7031;
	longitude 0;
	to nodePRUG7032PRUG7031;
	length 131.433;
	latitude 0;
	configuration PRUG5793-LINECONFIG;
};

object underground_line {
	phases ACB;
	from nodePRUG7032PRUG7031;
	name PRUG7032;
	longitude 0;
	to nodePRUG7033PRUG7032;
	length 687.798;
	latitude 0;
	configuration PRUG5793-LINECONFIG;
};

object capacitor {
	control MANUAL;
	phases ABCN;
	capacitor_A 50000.0;
	control_level BANK;
	name NEWCAP-FF99042C;
	parent node288-25-831PROH19112;
	capacitor_B 50000.0;
	phases_connected ABCN;
	longitude 0;
	switchC CLOSED;
	nominal_voltage 7200.0;
	capacitor_C 50000.0;
	latitude 0;
	switchB CLOSED;
	switchA CLOSED;
	pt_phase A;
};

object fuse {
	phases ACB;
	from GILMORE_CITY_SUBx;
	name RECL_646;
	current_limit 9999.0 A;
	longitude 0;
	to nodePROH8258RECL_646;
	latitude 0;
};

object overhead_line {
	phases ACB;
	from nodePROH8258RECL_646;
	name PROH8258;
	longitude 0;
	to nodePROH13247PROH8258;
	length 5557.83;
	latitude 0;
	configuration PROH15855-LINECONFIG;
};

object overhead_line {
	phases ACB;
	from nodePROH13247PROH8258;
	name PROH13247;
	longitude 0;
	to nodePRUG3830PROH13247;
	length 858.344;
	latitude 0;
	configuration PROH15855-LINECONFIG;
};

object underground_line {
	phases A;
	from nodePRUG3830PROH13247;
	name PRUG3830;
	longitude 0;
	to node308-02-281PRUG3830;
	length 381.773;
	latitude 0;
	configuration PRUG6578-LINECONFIG;
};

object load {
	phases A;
	load_class R;
	name 308-02-281;
	parent node308-02-281PRUG3830;
	longitude 0;
	constant_power_C 0.0+0.0j;
	constant_power_A 10196.2+3362.15j;
	latitude 0;
	nominal_voltage 7200.0;
	constant_power_B 0.0+0.0j;
};

object overhead_line {
	phases ACB;
	from nodePRUG3830PROH13247;
	name PROH13248;
	longitude 0;
	to nodePROH13249PROH13248;
	length 274.687;
	latitude 0;
	configuration PROH15855-LINECONFIG;
};

object overhead_line {
	phases ACB;
	from nodePROH13249PROH13248;
	name PROH13249;
	to nodePROH13250PROH13249;
	longitude 0;
	length 1316.66;
	latitude 0;
	configuration PROH15855-LINECONFIG;
};

object overhead_line {
	phases ACB;
	from nodePROH13250PROH13249;
	name PROH13250;
	longitude 0;
	to nodePROH18922PROH13250;
	length 3123.31;
	latitude 0;
	configuration PROH15855-LINECONFIG;
};

object overhead_line {
	phases ACB;
	from nodePROH18922PROH13250;
	name PROH18922;
	longitude 0;
	to nodePRUG641PROH18922;
	length 153.266;
	latitude 0;
	configuration PROH15855-LINECONFIG;
};

object underground_line {
	phases A;
	from nodePRUG641PROH18922;
	name PRUG641;
	longitude 0;
	to node308-11-160PRUG641;
	length 1221.09;
	latitude 0;
	configuration PRUG6578-LINECONFIG;
};

object load {
	phases A;
	load_class R;
	name 308-11-160;
	parent node308-11-160PRUG641;
	longitude 0;
	constant_power_C 0.0+0.0j;
	constant_power_A 7912.72+2609.18j;
	latitude 0;
	nominal_voltage 7200.0;
	constant_power_B 0.0+0.0j;
};

object overhead_line {
	phases ACB;
	from nodePRUG641PROH18922;
	name PROH18923;
	longitude 0;
	to nodePROH13334PROH18923;
	length 5162.68;
	latitude 0;
	configuration PROH15855-LINECONFIG;
};

object overhead_line {
	phases ACB;
	from nodePROH13334PROH18923;
	name PROH13334;
	longitude 0;
	to nodePROH7138PROH13334;
	length 1679.24;
	latitude 0;
	configuration PROH15855-LINECONFIG;
};

object overhead_line {
	phases C;
	from nodePROH7138PROH13334;
	name PROH7138;
	longitude 0;
	to node308-12-840PROH7138;
	length 662.722;
	latitude 0;
	configuration PROH7038-LINECONFIG;
};

object load {
	phases C;
	load_class R;
	name 308-12-840;
	parent node308-12-840PROH7138;
	longitude 0;
	constant_power_C 6978.14+2301.01j;
	constant_power_A 0.0+0.0j;
	latitude 0;
	nominal_voltage 7200.0;
	constant_power_B 0.0+0.0j;
};

object overhead_line {
	phases ACB;
	from nodePROH7138PROH13334;
	name PROH13335;
	longitude 0;
	to nodePROH13336PROH13335;
	length 2284.29;
	latitude 0;
	configuration PROH15855-LINECONFIG;
};

object overhead_line {
	phases ACB;
	from nodePROH13336PROH13335;
	name PROH13336;
	longitude 0;
	to nodeSWIT_48-APROH13336;
	length 909.898;
	latitude 0;
	configuration PROH15855-LINECONFIG;
};

object load {
	phases A;
	load_class R;
	name 308-13-170;
	parent nodePROH13336PROH13335;
	longitude 0;
	constant_power_C 0.0+0.0j;
	constant_power_A 0.0+0.0j;
	latitude 0;
	nominal_voltage 7200.0;
	constant_power_B 0.0+0.0j;
};

object overhead_line {
	phases ACB;
	from nodePROH13334PROH18923;
	name PROH16414;
	longitude 0;
	to nodePROH2135PROH16414;
	length 838.438;
	latitude 0;
	configuration PROH15855-LINECONFIG;
};

object overhead_line {
	phases A;
	from nodePROH2135PROH16414;
	name PROH2135;
	longitude 0;
	to node308-11-860PROH2135;
	length 271.896;
	latitude 0;
	configuration PROH11764-LINECONFIG;
};

object load {
	phases A;
	load_class R;
	name 308-11-860;
	parent node308-11-860PROH2135;
	longitude 0;
	constant_power_C 0.0+0.0j;
	constant_power_A 4722.71+1557.29j;
	latitude 0;
	nominal_voltage 7200.0;
	constant_power_B 0.0+0.0j;
};

object overhead_line {
	phases ACB;
	from nodePROH2135PROH16414;
	name PROH16415;
	to nodePRUG640PROH16415;
	longitude 0;
	length 3554.74;
	latitude 0;
	configuration PROH15855-LINECONFIG;
};

object underground_line {
	phases A;
	from nodePRUG640PROH16415;
	name PRUG640;
	longitude 0;
	to node308-14-130PRUG640;
	length 222.608;
	latitude 0;
	configuration PRUG6578-LINECONFIG;
};

object load {
	phases A;
	load_class R;
	name 308-14-130;
	parent node308-14-130PRUG640;
	longitude 0;
	constant_power_C 0.0+0.0j;
	constant_power_A 40248.9+13271.9j;
	latitude 0;
	nominal_voltage 7200.0;
	constant_power_B 0.0+0.0j;
};

object overhead_line {
	phases ACB;
	from nodePRUG640PROH16415;
	name PROH16416;
	longitude 0;
	to nodeSWIT_47-BPROH16416;
	length 498.235;
	latitude 0;
	configuration PROH15855-LINECONFIG;
};

object switch {
	status CLOSED;
	phases ACB;
	from nodeSWIT_47-BPROH16416;
	name SWIT_47-B;
	longitude 0;
	to nodeSWIT_47-ASWIT_47-B;
	latitude 0;
};

object switch {
	status CLOSED;
	phases ACB;
	from nodeSWIT_47-ASWIT_47-B;
	name SWIT_47-A;
	longitude 0;
	to nodePROH7760SWIT_47-A;
	latitude 0;
};

object overhead_line {
	phases ACB;
	from nodePROH7760SWIT_47-A;
	name PROH7760;
	longitude 0;
	to nodePROH7759PROH7760;
	length 337.429;
	latitude 0;
	configuration PROH15855-LINECONFIG;
};

object overhead_line {
	phases ACB;
	from nodePROH7759PROH7760;
	name PROH7759;
	longitude 0;
	to nodeSWIT_46-BPROH7759;
	length 928.539;
	latitude 0;
	configuration PROH15855-LINECONFIG;
};

object overhead_line {
	phases ACB;
	from nodePROH7759PROH7760;
	name PROH10759;
	longitude 0;
	to nodePRUG2085PROH10759;
	length 3888.15;
	latitude 0;
	configuration PROH15855-LINECONFIG;
};

object underground_line {
	phases C;
	from nodePRUG2085PROH10759;
	name PRUG2085;
	longitude 0;
	to node308-15-120PRUG2085;
	length 882.284;
	latitude 0;
	configuration PRUG6578-LINECONFIG;
};

object load {
	phases C;
	load_class R;
	name 308-15-120;
	parent node308-15-120PRUG2085;
	longitude 0;
	constant_power_C 6557.59+2162.33j;
	constant_power_A 0.0+0.0j;
	latitude 0;
	nominal_voltage 7200.0;
	constant_power_B 0.0+0.0j;
};

object overhead_line {
	phases ACB;
	from nodePRUG2085PROH10759;
	name PROH10760;
	longitude 0;
	to nodePROH11876PROH10760;
	length 1101.27;
	latitude 0;
	configuration PROH15855-LINECONFIG;
};

object overhead_line {
	phases ACB;
	from nodePROH11876PROH10760;
	name PROH11876;
	longitude 0;
	to nodePROH4626PROH11876;
	length 4664.14;
	latitude 0;
	configuration PROH15855-LINECONFIG;
};

object overhead_line {
	phases B;
	from nodePROH4626PROH11876;
	name PROH4626;
	longitude 0;
	to node308-16-120PROH4626;
	length 372.36;
	latitude 0;
	configuration PROH4629-LINECONFIG;
};

object load {
	phases B;
	load_class R;
	name 308-16-120;
	parent node308-16-120PROH4626;
	longitude 0;
	constant_power_C 0.0+0.0j;
	constant_power_A 0.0+0.0j;
	latitude 0;
	nominal_voltage 7200.0;
	constant_power_B 8224.24+2711.91j;
};

object overhead_line {
	phases ACB;
	from nodePROH4626PROH11876;
	name PROH11877;
	to nodePROH17413PROH11877;
	longitude 0;
	length 1259.71;
	latitude 0;
	configuration PROH15855-LINECONFIG;
};

object overhead_line {
	phases A;
	from nodePROH17413PROH11877;
	name PROH17413;
	longitude 0;
	to nodeFUSE_387PROH17413;
	length 217.832;
	latitude 0;
	configuration PROH11764-LINECONFIG;
};

object fuse {
	phases A;
	from nodeFUSE_387PROH17413;
	name FUSE_387;
	current_limit 9999.0 A;
	longitude 0;
	to nodePROH17414FUSE_387;
	latitude 0;
};

object overhead_line {
	phases A;
	from nodePROH17414FUSE_387;
	name PROH17414;
	longitude 0;
	to nodePRUG586PROH17414;
	length 2365.48;
	latitude 0;
	configuration PROH11764-LINECONFIG;
};

object underground_line {
	phases A;
	from nodePRUG586PROH17414;
	name PRUG586;
	longitude 0;
	to node308-16-410PRUG586;
	length 1182.32;
	latitude 0;
	configuration PRUG6578-LINECONFIG;
};

object load {
	phases A;
	load_class R;
	name 308-16-410;
	parent node308-16-410PRUG586;
	longitude 0;
	constant_power_C 0.0+0.0j;
	constant_power_A 0.0+0.0j;
	latitude 0;
	nominal_voltage 7200.0;
	constant_power_B 0.0+0.0j;
};

object overhead_line {
	phases ACB;
	from nodePROH17413PROH11877;
	name PROH18641;
	longitude 0;
	to nodePROH18640PROH18641;
	length 2377.9;
	latitude 0;
	configuration PROH15855-LINECONFIG;
};

object overhead_line {
	phases ACB;
	from nodePROH18640PROH18641;
	name PROH18640;
	longitude 0;
	to nodeSWIT_45-APROH18640;
	length 1219.18;
	latitude 0;
	configuration PROH15855-LINECONFIG;
};

object overhead_line {
	phases C;
	from nodePROH18640PROH18641;
	name PROH8238;
	longitude 0;
	to node308-08-830PROH8238;
	length 1571.76;
	latitude 0;
	configuration PROH7038-LINECONFIG;
};

object load {
	phases C;
	load_class R;
	name 308-08-830;
	parent node308-08-830PROH8238;
	longitude 0;
	constant_power_C 1557.62+513.619j;
	constant_power_A 0.0+0.0j;
	latitude 0;
	nominal_voltage 7200.0;
	constant_power_B 0.0+0.0j;
};

object overhead_line {
	phases C;
	from nodePROH17413PROH11877;
	name PROH17912;
	longitude 0;
	to nodeFUSE_363PROH17912;
	length 601.325;
	latitude 0;
	configuration PROH7038-LINECONFIG;
};

object fuse {
	phases C;
	from nodeFUSE_363PROH17912;
	name FUSE_363;
	current_limit 9999.0 A;
	longitude 0;
	to nodePROH17913FUSE_363;
	latitude 0;
};

object overhead_line {
	phases C;
	from nodePROH17913FUSE_363;
	name PROH17913;
	longitude 0;
	to node308-09-310PROH17913;
	length 4529.39;
	latitude 0;
	configuration PROH7038-LINECONFIG;
};

object load {
	phases C;
	load_class R;
	name 308-09-310;
	parent node308-09-310PROH17913;
	longitude 0;
	constant_power_C 8320.81+2743.75j;
	constant_power_A 0.0+0.0j;
	latitude 0;
	nominal_voltage 7200.0;
	constant_power_B 0.0+0.0j;
};

object overhead_line {
	phases AB;
	from nodePROH11876PROH10760;
	name PROH11047;
	longitude 0;
	to nodeFUSE_388PROH11047;
	length 232.939;
	latitude 0;
	configuration PROH7578-LINECONFIG;
};

object fuse {
	phases AB;
	from nodeFUSE_388PROH11047;
	name FUSE_388;
	current_limit 9999.0 A;
	longitude 0;
	to nodePROH11048FUSE_388;
	latitude 0;
};

object overhead_line {
	phases AB;
	from nodePROH11048FUSE_388;
	name PROH11048;
	longitude 0;
	to nodePROH7578PROH11048;
	length 1175.64;
	latitude 0;
	configuration PROH7578-LINECONFIG;
};

object line_configuration {
	name PROH7578-LINECONFIG;
	conductor_A PROH15855_conductor_C;
	spacing PROH7578-LINESPACING;
	conductor_B PROH15855_conductor_C;
};

object line_spacing {
	distance_AN 0.000000;
	name PROH7578-LINESPACING;
	distance_CN 0.000000;
	distance_BC 0.000000;
	distance_AB 3.961621;
	distance_AC 0.000000;
	distance_BN 0.000000;
};

object overhead_line {
	phases AB;
	from nodePROH7578PROH11048;
	name PROH7578;
	longitude 0;
	to node308-16-380PROH7578;
	length 1705.17;
	latitude 0;
	configuration PROH7578-LINECONFIG;
};

object load {
	phases AB;
	load_class R;
	name 308-16-380;
	parent node308-16-380PROH7578;
	longitude 0;
	constant_power_C 0.0+0.0j;
	constant_power_A 10965.7+3615.88j;
	latitude 0;
	nominal_voltage 7200.0;
	constant_power_B 10965.7+3615.88j;
};

object overhead_line {
	phases B;
	from nodePROH7578PROH11048;
	name PROH9761;
	longitude 0;
	to nodePROH9762PROH9761;
	length 6706.9;
	latitude 0;
	configuration PROH4629-LINECONFIG;
};

object overhead_line {
	phases B;
	from nodePROH9762PROH9761;
	name PROH9762;
	longitude 0;
	to node308-27-210PROH9762;
	length 2390.06;
	latitude 0;
	configuration PROH4629-LINECONFIG;
};

object load {
	phases B;
	load_class R;
	name 308-27-210;
	parent node308-27-210PROH9762;
	longitude 0;
	constant_power_C 0.0+0.0j;
	constant_power_A 0.0+0.0j;
	latitude 0;
	nominal_voltage 7200.0;
	constant_power_B 339.561+111.969j;
};

object line_configuration {
	name PROH4629-LINECONFIG;
	spacing PROH11764-LINESPACING;
	conductor_B PROH15855_conductor_C;
};

object overhead_line {
	phases B;
	from nodePROH9762PROH9761;
	name PROH4629;
	to node308-21-780PROH4629;
	longitude 0;
	length 974.934;
	latitude 0;
	configuration PROH4629-LINECONFIG;
};

object load {
	phases B;
	load_class R;
	name 308-21-780;
	parent node308-21-780PROH4629;
	longitude 0;
	constant_power_C 0.0+0.0j;
	constant_power_A 0.0+0.0j;
	latitude 0;
	nominal_voltage 7200.0;
	constant_power_B 115.264+38.0078j;
};

object overhead_line {
	phases C;
	from nodePROH11876PROH10760;
	name PROH12950;
	longitude 0;
	to nodeFUSE_364PROH12950;
	length 640.013;
	latitude 0;
	configuration PROH7038-LINECONFIG;
};

object fuse {
	phases C;
	from nodeFUSE_364PROH12950;
	name FUSE_364;
	current_limit 9999.0 A;
	longitude 0;
	to nodePROH12951FUSE_364;
	latitude 0;
};

object overhead_line {
	phases C;
	from nodePROH12951FUSE_364;
	name PROH12951;
	longitude 0;
	to nodePROH7038PROH12951;
	length 1439.55;
	latitude 0;
	configuration PROH7038-LINECONFIG;
};

object line_configuration {
	name PROH7038-LINECONFIG;
	spacing PROH11764-LINESPACING;
	conductor_C PROH15855_conductor_C;
};

object overhead_line {
	phases C;
	from nodePROH7038PROH12951;
	name PROH7038;
	longitude 0;
	to node308-10-610PROH7038;
	length 397.987;
	latitude 0;
	configuration PROH7038-LINECONFIG;
};

object load {
	phases C;
	load_class R;
	name 308-10-610;
	parent node308-10-610PROH7038;
	longitude 0;
	constant_power_C 7130.79+2351.35j;
	constant_power_A 0.0+0.0j;
	latitude 0;
	nominal_voltage 7200.0;
	constant_power_B 0.0+0.0j;
};

object overhead_line {
	phases C;
	from nodePROH7038PROH12951;
	name PROH12952;
	longitude 0;
	to nodePROH7039PROH12952;
	length 3139.11;
	latitude 0;
	configuration PROH7038-LINECONFIG;
};

object overhead_line {
	phases C;
	from nodePROH7039PROH12952;
	name PROH7039;
	to node308-03-810PROH7039;
	longitude 0;
	length 1686.35;
	latitude 0;
	configuration PROH7038-LINECONFIG;
};

object load {
	phases C;
	load_class R;
	name 308-03-810;
	parent node308-03-810PROH7039;
	longitude 0;
	constant_power_C 2211.82+729.338j;
	constant_power_A 0.0+0.0j;
	latitude 0;
	nominal_voltage 7200.0;
	constant_power_B 0.0+0.0j;
};

object overhead_line {
	phases C;
	from nodePROH7039PROH12952;
	name PROH12953;
	longitude 0;
	to node308-04-750PROH12953;
	length 4382.88;
	latitude 0;
	configuration PROH7038-LINECONFIG;
};

object load {
	phases C;
	load_class R;
	name 308-04-750;
	parent node308-04-750PROH12953;
	longitude 0;
	constant_power_C 3928.32+1295.35j;
	constant_power_A 0.0+0.0j;
	latitude 0;
	nominal_voltage 7200.0;
	constant_power_B 0.0+0.0j;
};

object overhead_line {
	phases A;
	from nodePROH7759PROH7760;
	name PROH13736;
	longitude 0;
	to nodeRECL_752PROH13736;
	length 716.756;
	latitude 0;
	configuration PROH11764-LINECONFIG;
};

object fuse {
	phases A;
	from nodeRECL_752PROH13736;
	name RECL_752;
	current_limit 9999.0 A;
	longitude 0;
	to nodePROH13737RECL_752;
	latitude 0;
};

object overhead_line {
	phases A;
	from nodePROH13737RECL_752;
	name PROH13737;
	longitude 0;
	to nodePROH2102PROH13737;
	length 3194.62;
	latitude 0;
	configuration PROH11764-LINECONFIG;
};

object overhead_line {
	phases A;
	from nodePROH2102PROH13737;
	name PROH2102;
	longitude 0;
	to node308-15-780PROH2102;
	length 947.905;
	latitude 0;
	configuration PROH11764-LINECONFIG;
};

object load {
	phases A;
	load_class R;
	name 308-15-780;
	parent node308-15-780PROH2102;
	longitude 0;
	constant_power_C 0.0+0.0j;
	constant_power_A 1943.91+640.996j;
	latitude 0;
	nominal_voltage 7200.0;
	constant_power_B 0.0+0.0j;
};

object overhead_line {
	phases A;
	from nodePROH2102PROH13737;
	name PROH13738;
	longitude 0;
	to nodePROH15340PROH13738;
	length 1758.38;
	latitude 0;
	configuration PROH11764-LINECONFIG;
};

object overhead_line {
	phases A;
	from nodePROH15340PROH13738;
	name PROH15340;
	longitude 0;
	to nodePROH15341PROH15340;
	length 1482.39;
	latitude 0;
	configuration PROH11764-LINECONFIG;
};

object overhead_line {
	phases A;
	from nodePROH15341PROH15340;
	name PROH15341;
	longitude 0;
	to nodePROH15342PROH15341;
	length 647.949;
	latitude 0;
	configuration PROH11764-LINECONFIG;
};

object overhead_line {
	phases A;
	from nodePROH15342PROH15341;
	name PROH15342;
	longitude 0;
	to nodePROH15343PROH15342;
	length 297.189;
	latitude 0;
	configuration PROH11764-LINECONFIG;
};

object overhead_line {
	phases A;
	from nodePROH15343PROH15342;
	name PROH15343;
	longitude 0;
	to nodePROH15344PROH15343;
	length 1142.96;
	latitude 0;
	configuration PROH11764-LINECONFIG;
};

object overhead_line {
	phases A;
	from nodePROH15344PROH15343;
	name PROH15344;
	longitude 0;
	to nodePROH1982PROH15344;
	length 1440.06;
	latitude 0;
	configuration PROH11764-LINECONFIG;
};

object overhead_line {
	phases A;
	from nodePROH1982PROH15344;
	name PROH1982;
	longitude 0;
	to node308-27-360PROH1982;
	length 3329.9;
	latitude 0;
	configuration PROH11764-LINECONFIG;
};

object load {
	phases A;
	load_class R;
	name 308-27-360;
	parent node308-27-360PROH1982;
	longitude 0;
	constant_power_C 0.0+0.0j;
	constant_power_A 0.0+0.0j;
	latitude 0;
	nominal_voltage 7200.0;
	constant_power_B 0.0+0.0j;
};

object overhead_line {
	phases A;
	from nodePROH1982PROH15344;
	name PROH14080;
	longitude 0;
	to node308-23-860PROH14080;
	length 3507.68;
	latitude 0;
	configuration PROH11764-LINECONFIG;
};

object load {
	phases A;
	load_class R;
	name 308-23-860;
	parent node308-23-860PROH14080;
	longitude 0;
	constant_power_C 0.0+0.0j;
	constant_power_A 1803.73+594.77j;
	latitude 0;
	nominal_voltage 7200.0;
	constant_power_B 0.0+0.0j;
};

object overhead_line {
	phases A;
	from node308-23-860PROH14080;
	name PROH14081;
	longitude 0;
	to nodePRUG588PROH14081;
	length 4809.76;
	latitude 0;
	configuration PROH11764-LINECONFIG;
};

object underground_line {
	phases A;
	from nodePRUG588PROH14081;
	name PRUG588;
	longitude 0;
	to node308-24-850PRUG588;
	length 1101.18;
	latitude 0;
	configuration PRUG6578-LINECONFIG;
};

object load {
	phases A;
	load_class R;
	name 308-24-850;
	parent node308-24-850PRUG588;
	longitude 0;
	constant_power_C 0.0+0.0j;
	constant_power_A 5358.22+1766.85j;
	latitude 0;
	nominal_voltage 7200.0;
	constant_power_B 0.0+0.0j;
};

object overhead_line {
	phases A;
	from nodePRUG588PROH14081;
	name PROH14082;
	longitude 0;
	to nodePROH14083PROH14082;
	length 763.401;
	latitude 0;
	configuration PROH11764-LINECONFIG;
};

object overhead_line {
	phases A;
	from nodePROH14083PROH14082;
	name PROH14083;
	longitude 0;
	to node308-25-141PROH14083;
	length 804.157;
	latitude 0;
	configuration PROH11764-LINECONFIG;
};

object load {
	phases A;
	load_class R;
	name 308-25-141;
	parent node308-25-141PROH14083;
	longitude 0;
	constant_power_C 0.0+0.0j;
	constant_power_A 0.0+0.0j;
	latitude 0;
	nominal_voltage 7200.0;
	constant_power_B 0.0+0.0j;
};

object load {
	phases A;
	load_class R;
	name 308-25-140;
	parent nodePROH14083PROH14082;
	longitude 0;
	constant_power_C 0.0+0.0j;
	constant_power_A 0.0+0.0j;
	latitude 0;
	nominal_voltage 7200.0;
	constant_power_B 0.0+0.0j;
};

object overhead_line {
	phases A;
	from nodePROH15344PROH15343;
	name PROH1981;
	longitude 0;
	to node308-22-670PROH1981;
	length 522.838;
	latitude 0;
	configuration PROH11764-LINECONFIG;
};

object load {
	phases A;
	load_class R;
	name 308-22-670;
	parent node308-22-670PROH1981;
	longitude 0;
	constant_power_C 0.0+0.0j;
	constant_power_A 4009.32+1322.05j;
	latitude 0;
	nominal_voltage 7200.0;
	constant_power_B 0.0+0.0j;
};

object overhead_line {
	phases A;
	from nodePROH15343PROH15342;
	name PROH17352;
	longitude 0;
	to nodePROH17353PROH17352;
	length 2082.77;
	latitude 0;
	configuration PROH11764-LINECONFIG;
};

object overhead_line {
	phases A;
	from nodePROH17353PROH17352;
	name PROH1980;
	longitude 0;
	to node308-23-540PROH1980;
	length 1067.82;
	latitude 0;
	configuration PROH11764-LINECONFIG;
};

object load {
	phases A;
	load_class R;
	name 308-23-540;
	parent node308-23-540PROH1980;
	longitude 0;
	constant_power_C 0.0+0.0j;
	constant_power_A 5663.51+1867.52j;
	latitude 0;
	nominal_voltage 7200.0;
	constant_power_B 0.0+0.0j;
};

object underground_line {
	phases A;
	from node308-23-540PROH1980;
	name PRUG587;
	to node308-23-541PRUG587;
	longitude 0;
	length 794.699;
	latitude 0;
	configuration PRUG6578-LINECONFIG;
};

object load {
	phases A;
	load_class R;
	name 308-23-541;
	parent node308-23-541PRUG587;
	longitude 0;
	constant_power_C 0.0+0.0j;
	constant_power_A 180.684+59.5798j;
	latitude 0;
	nominal_voltage 7200.0;
	constant_power_B 0.0+0.0j;
};

object overhead_line {
	phases A;
	from nodePROH15342PROH15341;
	name PROH8978;
	longitude 0;
	to nodePRUG3618PROH8978;
	length 568.209;
	latitude 0;
	configuration PROH11764-LINECONFIG;
};

object underground_line {
	phases A;
	from nodePRUG3618PROH8978;
	name PRUG3618;
	longitude 0;
	to node308-23-310PRUG3618;
	length 417.431;
	latitude 0;
	configuration PRUG6578-LINECONFIG;
};

object load {
	phases A;
	load_class R;
	name 308-23-310;
	parent node308-23-310PRUG3618;
	longitude 0;
	constant_power_C 0.0+0.0j;
	constant_power_A 3962.59+1306.65j;
	latitude 0;
	nominal_voltage 7200.0;
	constant_power_B 0.0+0.0j;
};

object underground_line {
	phases A;
	from nodePROH15341PROH15340;
	name PRUG3822;
	longitude 0;
	to node308-23-220PRUG3822;
	length 1224.44;
	latitude 0;
	configuration PRUG6578-LINECONFIG;
};

object load {
	phases A;
	load_class R;
	name 308-23-220;
	parent node308-23-220PRUG3822;
	longitude 0;
	constant_power_C 0.0+0.0j;
	constant_power_A 186.915+61.6342j;
	latitude 0;
	nominal_voltage 7200.0;
	constant_power_B 0.0+0.0j;
};

object overhead_line {
	phases B;
	from nodePROH13250PROH13249;
	name PROH4728;
	longitude 0;
	to node308-02-680PROH4728;
	length 501.434;
	latitude 0;
	configuration PROH4629-LINECONFIG;
};

object load {
	phases B;
	load_class R;
	name 308-02-680;
	parent node308-02-680PROH4728;
	longitude 0;
	constant_power_C 0.0+0.0j;
	constant_power_A 0.0+0.0j;
	latitude 0;
	nominal_voltage 7200.0;
	constant_power_B 0.0+0.0j;
};

object load {
	phases C;
	load_class R;
	name 308-02-280;
	parent nodePROH13249PROH13248;
	longitude 0;
	constant_power_C 5358.22+1766.85j;
	constant_power_A 0.0+0.0j;
	latitude 0;
	nominal_voltage 7200.0;
	constant_power_B 0.0+0.0j;
};

object fuse {
	phases ACB;
	from GILMORE_CITY_SUBx;
	name RECL_649;
	current_limit 9999.0 A;
	longitude 0;
	to nodePRUG5601RECL_649;
	latitude 0;
};

object underground_line {
	phases ACB;
	from nodePRUG5601RECL_649;
	name PRUG5601;
	longitude 0;
	to node288-26-870PRUG5601;
	length 1831.47;
	latitude 0;
	configuration PRUG5793-LINECONFIG;
};

object load {
	phases A;
	load_class R;
	name 288-26-870;
	parent node288-26-870PRUG5601;
	longitude 0;
	constant_power_C 0.0+0.0j;
	constant_power_A 0.0+0.0j;
	latitude 0;
	nominal_voltage 7200.0;
	constant_power_B 0.0+0.0j;
};

object underground_line {
	phases ACB;
	from node288-26-870PRUG5601;
	name PRUG5602;
	longitude 0;
	to nodePROH12251PRUG5602;
	length 3759.11;
	latitude 0;
	configuration PRUG5793-LINECONFIG;
};

object overhead_line {
	phases ACB;
	from nodePROH12251PRUG5602;
	name PROH12251;
	longitude 0;
	to nodePROH12252PROH12251;
	length 3141.69;
	latitude 0;
	configuration PROH15855-LINECONFIG;
};

object overhead_line {
	phases ACB;
	from nodePROH12252PROH12251;
	name PROH12252;
	longitude 0;
	to nodePROH7762PROH12252;
	length 1519.48;
	latitude 0;
	configuration PROH15855-LINECONFIG;
};

object overhead_line {
	phases ACB;
	from nodePROH7762PROH12252;
	name PROH7762;
	to nodePROH17832PROH7762;
	longitude 0;
	length 135.442;
	latitude 0;
	configuration PROH15855-LINECONFIG;
};

object overhead_line {
	phases ACB;
	from nodePROH17832PROH7762;
	name PROH17832;
	longitude 0;
	to node288-23-710PROH17832;
	length 273.779;
	latitude 0;
	configuration PROH15855-LINECONFIG;
};

object load {
	phases C;
	load_class R;
	name 288-23-710;
	parent node288-23-710PROH17832;
	longitude 0;
	constant_power_C 2869.14+946.086j;
	constant_power_A 0.0+0.0j;
	latitude 0;
	nominal_voltage 7200.0;
	constant_power_B 0.0+0.0j;
};

object overhead_line {
	phases ACB;
	from node288-23-710PROH17832;
	name PROH17833;
	longitude 0;
	to nodePROH18866PROH17833;
	length 4965.17;
	latitude 0;
	configuration PROH15855-LINECONFIG;
};

object overhead_line {
	phases B;
	from nodePROH18866PROH17833;
	name PROH18866;
	longitude 0;
	to nodeFUSE_338PROH18866;
	length 268.075;
	latitude 0;
	configuration PROH4629-LINECONFIG;
};

object fuse {
	phases B;
	from nodeFUSE_338PROH18866;
	name FUSE_338;
	current_limit 9999.0 A;
	longitude 0;
	to nodePROH18867FUSE_338;
	latitude 0;
};

object overhead_line {
	phases B;
	from nodePROH18867FUSE_338;
	name PROH18867;
	longitude 0;
	to nodePROH4782PROH18867;
	length 890.141;
	latitude 0;
	configuration PROH4629-LINECONFIG;
};

object overhead_line {
	phases B;
	from nodePROH4782PROH18867;
	name PROH4782;
	longitude 0;
	to node288-23-240PROH4782;
	length 905.624;
	latitude 0;
	configuration PROH4629-LINECONFIG;
};

object load {
	phases B;
	load_class R;
	name 288-23-240;
	parent node288-23-240PROH4782;
	longitude 0;
	constant_power_C 0.0+0.0j;
	constant_power_A 0.0+0.0j;
	latitude 0;
	nominal_voltage 7200.0;
	constant_power_B 1666.65+549.572j;
};

object overhead_line {
	phases B;
	from nodePROH4782PROH18867;
	name PROH18868;
	longitude 0;
	to nodePROH4783PROH18868;
	length 2296.79;
	latitude 0;
	configuration PROH4629-LINECONFIG;
};

object overhead_line {
	phases B;
	from nodePROH4783PROH18868;
	name PROH4783;
	longitude 0;
	to node288-14-760PROH4783;
	length 977.49;
	latitude 0;
	configuration PROH4629-LINECONFIG;
};

object load {
	phases B;
	load_class R;
	name 288-14-760;
	parent node288-14-760PROH4783;
	longitude 0;
	constant_power_C 0.0+0.0j;
	constant_power_A 0.0+0.0j;
	latitude 0;
	nominal_voltage 7200.0;
	constant_power_B 623.048+205.447j;
};

object overhead_line {
	phases B;
	from nodePROH4783PROH18868;
	name PROH18869;
	longitude 0;
	to nodePROH18870PROH18869;
	length 474.985;
	latitude 0;
	configuration PROH4629-LINECONFIG;
};

object overhead_line {
	phases B;
	from nodePROH18870PROH18869;
	name PROH18870;
	longitude 0;
	to nodePROH11284PROH18870;
	length 1693.46;
	latitude 0;
	configuration PROH4629-LINECONFIG;
};

object overhead_line {
	phases B;
	from nodePROH11284PROH18870;
	name PROH11284;
	longitude 0;
	to nodePROH11285PROH11284;
	length 208.431;
	latitude 0;
	configuration PROH4629-LINECONFIG;
};

object overhead_line {
	phases B;
	from nodePROH11285PROH11284;
	name PROH11285;
	longitude 0;
	to node288-24-380PROH11285;
	length 1264.87;
	latitude 0;
	configuration PROH4629-LINECONFIG;
};

object load {
	phases B;
	load_class R;
	name 288-24-380;
	parent node288-24-380PROH11285;
	longitude 0;
	constant_power_C 0.0+0.0j;
	constant_power_A 0.0+0.0j;
	latitude 0;
	nominal_voltage 7200.0;
	constant_power_B 0.0+0.0j;
};

object load {
	phases B;
	load_class R;
	name 288-24-210;
	parent nodePROH11285PROH11284;
	longitude 0;
	constant_power_C 0.0+0.0j;
	constant_power_A 0.0+0.0j;
	latitude 0;
	nominal_voltage 7200.0;
	constant_power_B 0.0+0.0j;
};

object overhead_line {
	phases B;
	from nodePROH11284PROH18870;
	name PROH18871;
	longitude 0;
	to nodePROH18872PROH18871;
	length 1796.33;
	latitude 0;
	configuration PROH4629-LINECONFIG;
};

object overhead_line {
	phases B;
	from nodePROH18872PROH18871;
	name PROH4785;
	longitude 0;
	to node288-13-841PROH4785;
	length 443.274;
	latitude 0;