clock {
	timezone PST+8PDT;
	starttime '2014-07-30 00:00:00';
	stoptime '2014-08-29 00:00:00';
};

#include "light_schedule.glm";
#include "water_and_setpoint_schedule.glm";
#set minimum_timestep=3600;
#set profiler=1;
#set relax_naming_rules=1;
module generators;
module tape;
module climate;
module residential {
	implicit_enduses NONE;
};

module powerflow {
	solver_method NR;
	NR_iteration_limit 50;
};

object climate {
	name "Climate";
	interpolate QUADRATIC;
	tmyfile "climate.tmy2";
};

object overhead_line_conductor {
	resistance 0.185900;
	name overhead_line_conductor_6010;
	geometric_mean_radius 0.031300;
};

object overhead_line_conductor {
	resistance 0.592000;
	name overhead_line_conductor_6020;
	geometric_mean_radius 0.00814;
};

object overhead_line_conductor {
	resistance 1.120000;
	name overhead_line_conductor_6030;
	geometric_mean_radius 0.004460;
};

object underground_line_conductor {
	name underground_line_conductor_6060;
	conductor_resistance 0.410000;
	shield_resistance 0.000000;
	neutral_gmr 0.0020800;
	outer_diameter 1.290000;
	neutral_strands 13.000000;
	neutral_resistance 14.87200;
	neutral_diameter 0.0640837;
	conductor_diameter 0.567000;
	shield_gmr 0.000000;
	conductor_gmr 0.017100;
};

object underground_line_conductor {
	name underground_line_conductor_6070;
	conductor_resistance 0.970000;
	shield_resistance 0.000000;
	neutral_gmr 0.011100;
	outer_diameter 1.060000;
	neutral_strands 6.000000;
	neutral_resistance 0.970000;
	neutral_diameter 0.0640837;
	conductor_diameter 0.368000;
	shield_gmr 0.000000;
	conductor_gmr 0.011100;
};

object line_spacing {
	distance_BC 7.0;
	name line_spacing_500601;
	distance_CN 5.0;
	distance_AN 4.272002;
	distance_AB 2.5;
	distance_BN 5.656854;
	distance_AC 4.5;
};

object line_spacing {
	distance_BC 7.0;
	name line_spacing_500602;
	distance_CN 5.656854;
	distance_AN 4.272002;
	distance_AB 4.5;
	distance_AC 2.5;
	distance_BN 5.0;
};

object line_spacing {
	distance_AN 0.0;
	name line_spacing_505603;
	distance_CN 5.656854;
	distance_BC 7.0;
	distance_AB 0.0;
	distance_AC 0.0;
	distance_BN 5.0;
};

object line_spacing {
	distance_AN 5.656854;
	name line_spacing_505604;
	distance_CN 5.0;
	distance_BC 0.0;
	distance_AB 0.0;
	distance_AC 7.0;
	distance_BN 0.0;
};

object line_spacing {
	distance_AN 0.0;
	name line_spacing_510;
	distance_CN 5.0;
	distance_BC 0.0;
	distance_AB 0.0;
	distance_AC 0.0;
	distance_BN 0.0;
};

object line_configuration {
	name line_configuration_601;
	spacing line_spacing_500601;
	conductor_N overhead_line_conductor_6020;
	conductor_A overhead_line_conductor_6010;
	conductor_C overhead_line_conductor_6010;
	conductor_B overhead_line_conductor_6010;
};

object line_configuration {
	name line_configuration_602;
	spacing line_spacing_500602;
	conductor_N overhead_line_conductor_6020;
	conductor_A overhead_line_conductor_6020;
	conductor_C overhead_line_conductor_6020;
	conductor_B overhead_line_conductor_6020;
};

object line_configuration {
	name line_configuration_603;
	spacing line_spacing_505603;
	conductor_N overhead_line_conductor_6030;
	conductor_C overhead_line_conductor_6030;
	conductor_B overhead_line_conductor_6030;
};

object line_configuration {
	name line_configuration_604;
	spacing line_spacing_505604;
	conductor_N overhead_line_conductor_6030;
	conductor_A overhead_line_conductor_6030;
	conductor_C overhead_line_conductor_6030;
};

object line_configuration {
	conductor_N overhead_line_conductor_6030;
	spacing line_spacing_510;
	name line_configuration_605;
	conductor_C overhead_line_conductor_6030;
};

object line_spacing {
	distance_AN 0.000000;
	name line_spacing_515;
	distance_CN 0.000000;
	distance_BC 0.500000;
	distance_AB 0.500000;
	distance_AC 1.000000;
	distance_BN 0.000000;
};

object line_spacing {
	distance_AN 0.083333;
	name line_spacing_520;
	distance_CN 0.000000;
	distance_BC 0.000000;
	distance_AB 0.000000;
	distance_AC 0.000000;
	distance_BN 0.000000;
};

object line_configuration {
	name line_configuration_606;
	spacing line_spacing_515;
	conductor_A underground_line_conductor_6060;
	conductor_C underground_line_conductor_6060;
	conductor_B underground_line_conductor_6060;
};

object line_configuration {
	spacing line_spacing_520;
	conductor_N underground_line_conductor_6070;
	conductor_A underground_line_conductor_6070;
	name line_configuration_607;
};

object transformer_configuration {
	power_rating 500;
	primary_voltage 4160;
	install_type PADMOUNT;
	secondary_voltage 480;
	connect_type WYE_WYE;
	resistance 0.011;
	reactance 0.02;
	name transformer_configuration_400;
};

object regulator_configuration {
	power_transducer_ratio 20;
	connect_type 1;
	Type A;
	band_width 40;
	compensator_x_setting_A 9.0;
	time_delay 30.0;
	compensator_x_setting_C 9.0;
	compensator_x_setting_B 9.0;
	regulation 0.10;
	compensator_r_setting_C 3.0;
	compensator_r_setting_B 3.0;
	compensator_r_setting_A 3.0;
	band_center 2401;
	PT_phase ABC;
	lower_taps 16;
	Control REMOTE_NODE;
	raise_taps 16;
	name regulator_configuration_6506321;
	current_transducer_ratio 700;
	tap_pos_B 1;
	tap_pos_C 1;
	CT_phase ABC;
	tap_pos_A 1;
};

object transformer_configuration {
	name trans_config_to_feeder;
	primary_voltage 33000;
	install_type PADMOUNT;
	secondary_voltage 2401.777;
	connect_type WYE_WYE;
	impedance 0.00033+0.0022j;
	power_rating 5 MVA;
};

object node {
	phases ABCN;
	nominal_voltage 33000;
	name network_node;
	bustype SWING;
};

object transformer {
	phases ABCN;
	from network_node;
	name substation_transformer;
	to 650;
	configuration trans_config_to_feeder;
	groupid swingKids;
};

object overhead_line {
	phases BCN;
	from 632;
	name 632-645;
	to 645;
	length 500;
	configuration line_configuration_603;
	groupid Distribution_Line;
};

object overhead_line {
	phases BCN;
	from 645;
	name 645-646;
	to 646;
	length 300;
	configuration line_configuration_603;
	groupid Distribution_Line;
};

object overhead_line {
	phases ABCN;
	from 630;
	name 630-632;
	to 632;
	length 2000;
	configuration line_configuration_601;
	groupid Distribution_Line;
};

object overhead_line {
	phases ABCN;
	from 632;
	name 632-6321;
	to 6321;
	length 500;
	configuration line_configuration_601;
	groupid Distribution_Line;
};

object overhead_line {
	phases ABCN;
	from 6321;
	name 6321-671;
	to 671;
	length 1500;
	configuration line_configuration_601;
	groupid Distribution_Line;
};

object overhead_line {
	phases ABCN;
	from 671;
	name 671-680;
	to 680;
	length 1000;
	configuration line_configuration_601;
	groupid Distribution_Line;
};

object overhead_line {
	phases ACN;
	from 671;
	name 671-684;
	to 684;
	length 300;
	configuration line_configuration_604;
	groupid Distribution_Line;
};

object overhead_line {
	phases CN;
	from 684;
	name 684-611;
	to 611;
	length 300;
	configuration line_configuration_605;
	groupid Distribution_Line;
};

object underground_line {
	phases AN;
	from 684;
	name 684-652;
	to 652;
	length 800;
	configuration line_configuration_607;
	groupid Distribution_Line;
};

object underground_line {
	phases ABC;
	from 692;
	name 692-675;
	to 675;
	length 2500;
	configuration line_configuration_606;
	groupid Distribution_Line;
};

object overhead_line {
	phases ABCN;
	from 632;
	name 632-633;
	to 633;
	length 500;
	configuration line_configuration_602;
	groupid Distribution_Line;
};

object node {
	phases ABCN;
	name 633;
	voltage_B -1200.8886-2080.000j;
	voltage_C -1200.8886+2080.000j;
	voltage_A 2401.7771;
	nominal_voltage 2401.7771;
};

object node {
	phases ABCN;
	name 630;
	voltage_B -1200.8886-2080.000j;
	voltage_C -1200.8886+2080.000j;
	voltage_A 2401.7771+0j;
	nominal_voltage 2401.7771;
};

object node {
	phases ABCN;
	name 632;
	voltage_B -1200.8886-2080.000j;
	voltage_C -1200.8886+2080.000j;
	voltage_A 2401.7771;
	nominal_voltage 2401.7771;
};

object node {
	phases ABCN;
	name 650;
	voltage_B -1200.8886-2080.000j;
	voltage_C -1200.8886+2080.000j;
	voltage_A 2401.7771;
	nominal_voltage 2401.7771;
};

object node {
	phases ABCN;
	name 680;
	voltage_B -1200.8886-2080.000j;
	voltage_C -1200.8886+2080.000j;
	voltage_A 2401.7771;
	nominal_voltage 2401.7771;
};

object node {
	phases ACN;
	name 684;
	voltage_B -1200.8886-2080.000j;
	voltage_C -1200.8886+2080.000j;
	voltage_A 2401.7771;
	nominal_voltage 2401.7771;
};

object node {
	phases ABCN;
	name 634;
	voltage_B -240.000-415.6922j;
	voltage_C -240.000+415.6922j;
	voltage_A 480.000+0j;
	nominal_voltage 480.000;
};

object node {
	phases BCN;
	nominal_voltage 2401.7771;
	name 645;
};

object node {
	phases BC;
	nominal_voltage 2401.7771;
	name 646;
};

object node {
	phases AN;
	nominal_voltage 2401.7771;
	name 652;
};

object node {
	phases ABC;
	nominal_voltage 2401.7771;
	name 671;
};

object node {
	phases ABC;
	nominal_voltage 2401.7771;
	name 675;
};

object node {
	phases ABC;
	nominal_voltage 2401.7771;
	name 692;
};

object node {
	phases CN;
	nominal_voltage 2401.7771;
	name 611;
};

object node {
	phases ABC;
	nominal_voltage 2401.7771;
	name 6711;
	parent 671;
};

object node {
	phases ABCN;
	nominal_voltage 2401.7771;
	name 6321;
};

object switch {
	status CLOSED;
	phases ABCN;
	from 671;
	name 671-692;
	to 692;
};

object transformer {
	phases ABCN;
	from 633;
	name 633-634;
	to 634;
	configuration transformer_configuration_400;
	groupid Distribution_Trans;
};

object regulator {
	phases ABC;
	from 650;
	name Reg1;
	to 630;
	sense_node 671;
	configuration regulator_configuration_6506321;
};

object capacitor {
	control VOLT;
	phases ABCN;
	name CAP1;
	parent 675;
	capacitor_B 0.10 MVAr;
	capacitor_C 0.10 MVAr;
	capacitor_A 0.10 MVAr;
	time_delay 300.0;
	nominal_voltage 2401.7771;
	voltage_set_high 2350.0;
	voltage_set_low 2340.0;
	switchC CLOSED;
	control_level INDIVIDUAL;
	switchA CLOSED;
	switchB CLOSED;
	phases_connected ABCN;
	dwell_time 0.0;
	pt_phase ABCN;
};

object capacitor {
	control VOLT;
	phases ABCN;
	name CAP2;
	parent 675;
	capacitor_B 0.05 MVAr;
	capacitor_C 0.05 MVAr;
	capacitor_A 0.05 MVAr;
	time_delay 300.0;
	nominal_voltage 2401.7771;
	voltage_set_high 2300.0;
	voltage_set_low 2150.0;
	switchC CLOSED;
	control_level INDIVIDUAL;
	switchA CLOSED;
	switchB CLOSED;
	phases_connected ABCN;
	dwell_time 0.0;
	pt_phase ABCN;
};

object triplex_line_configuration {
	diameter 0.368;
	insulation_thickness 0.08;
	conductor_1 trip_line_configtriplex_line_conductor69;
	conductor_2 trip_line_configtriplex_line_conductor70;
	conductor_N trip_line_configtriplex_line_conductor71;
	name trip_line_config;
};

object triplex_line_conductor {
	resistance 0.97;
	name trip_line_configtriplex_line_conductor69;
	geometric_mean_radius 0.01111;
};

object triplex_line_conductor {
	resistance 0.97;
	name trip_line_configtriplex_line_conductor70;
	geometric_mean_radius 0.01111;
};

object triplex_line_conductor {
	resistance 0.97;
	name trip_line_configtriplex_line_conductor71;
	geometric_mean_radius 0.01111;
};

object transformer {
	phases BS;
	from 645;
	name CTTF_B_645;
	to tn_B_645;
	configuration CTTF_B_645transformer_configuration73;
	groupid Distribution_Trans;
};

object transformer_configuration {
	shunt_impedance 10000+10000j;
	primary_voltage 2401.777;
	install_type POLETOP;
	secondary_voltage 120;
	connect_type SINGLE_PHASE_CENTER_TAPPED;
	impedance 0.00033+0.0022j;
	powerB_rating 110 kVA;
	name CTTF_B_645transformer_configuration73;
};

object triplex_meter {
	phases BS;
	nominal_voltage 120;
	name tn_B_645;
};

object triplex_line {
	phases BS;
	from tn_B_645;
	name tl_B_1_645;
	to tm_B_1_645;
	length 16.35;
	configuration trip_line_config;
	groupid Triplex_Line;
};

object triplex_meter {
	phases BS;
	nominal_voltage 120;
	name tm_B_1_645;
	groupid Triplex_Meter;
};

object house {
	schedule_skew 722;
	name house1B_tm_B_1_645;
	parent tm_B_1_645;
	floor_area 1716;
	cooling_COP 2.5;
	cooling_system_type ELECTRIC;
	heating_setpoint heating3*1;
	cooling_setpoint cooling7*1;
	air_temperature 70;
	thermal_integrity_level 5;
	mass_temperature 70;
	heating_system_type GAS;
};

object ZIPload {
	schedule_skew 722;
	parent house1B_tm_B_1_645;
	power_fraction 0.400000;
	current_fraction 0.300000;
	base_power LIGHTS*0.97;
	impedance_pf 1.000;
	current_pf 1.000;
	power_pf 1.000;
	impedance_fraction 0.300000;
	heatgain_fraction 0.9;
	name house1B_tm_B_1_645ZIPload78;
};

object triplex_line {
	phases BS;
	from tn_B_645;
	name tl_B_2_645;
	to tm_B_2_645;
	length 13.90;
	configuration trip_line_config;
	groupid Triplex_Line;
};

object triplex_meter {
	phases BS;
	nominal_voltage 120;
	name tm_B_2_645;
	groupid Triplex_Meter;
};

object house {
	schedule_skew 2406;
	name house2B_tm_B_2_645;
	parent tm_B_2_645;
	floor_area 2339;
	cooling_COP 2.6;
	cooling_system_type ELECTRIC;
	heating_setpoint heating4*1;
	cooling_setpoint cooling3*1;
	air_temperature 70;
	thermal_integrity_level 6;
	heating_COP 3.0;
	mass_temperature 70;
	heating_system_type HEAT_PUMP;
};

object ZIPload {
	schedule_skew 2406;
	parent house2B_tm_B_2_645;
	power_fraction 0.400000;
	current_fraction 0.300000;
	base_power LIGHTS*1.29;
	impedance_pf 1.000;
	current_pf 1.000;
	power_pf 1.000;
	impedance_fraction 0.300000;
	heatgain_fraction 0.9;
	name house2B_tm_B_2_645ZIPload82;
};

object waterheater {
	schedule_skew 2406;
	tank_volume 50;
	temperature 135;
	parent house2B_tm_B_2_645;
	heating_element_capacity 4.8 kW;
	thermostat_deadband 3.9;
	location INSIDE;
	demand water14*1;
	tank_setpoint 133.7;
	tank_UA 3.7;
	name house2B_tm_B_2_645waterheater83;
};

object triplex_line {
	phases BS;
	from tn_B_645;
	name tl_B_3_645;
	to tm_B_3_645;
	length 17.80;
	configuration trip_line_config;
	groupid Triplex_Line;
};

object triplex_meter {
	phases BS;
	nominal_voltage 120;
	name tm_B_3_645;
	groupid Triplex_Meter;
};

object house {
	schedule_skew 1870;
	name house3B_tm_B_3_645;
	parent tm_B_3_645;
	floor_area 2236;
	cooling_COP 3.2;
	cooling_system_type ELECTRIC;
	heating_setpoint heating2*1;
	cooling_setpoint cooling7*1;
	air_temperature 70;
	thermal_integrity_level 4;
	mass_temperature 70;
	heating_system_type GAS;
};

object ZIPload {
	schedule_skew 1870;
	parent house3B_tm_B_3_645;
	power_fraction 0.400000;
	current_fraction 0.300000;
	base_power LIGHTS*0.99;
	impedance_pf 1.000;
	current_pf 1.000;
	power_pf 1.000;
	impedance_fraction 0.300000;
	heatgain_fraction 0.9;
	name house3B_tm_B_3_645ZIPload87;
};

object triplex_line {
	phases BS;
	from tn_B_645;
	name tl_B_4_645;
	to tm_B_4_645;
	length 15.52;
	configuration trip_line_config;
	groupid Triplex_Line;
};

object triplex_meter {
	phases BS;
	nominal_voltage 120;
	name tm_B_4_645;
	groupid Triplex_Meter;
};

object house {
	schedule_skew 2138;
	name house4B_tm_B_4_645;
	parent tm_B_4_645;
	floor_area 2691;
	cooling_COP 3.7;
	cooling_system_type ELECTRIC;
	heating_setpoint heating7*1;
	cooling_setpoint cooling4*1;
	air_temperature 70;
	thermal_integrity_level 5;
	heating_COP 3.5;
	mass_temperature 70;
	heating_system_type HEAT_PUMP;
};

object ZIPload {
	schedule_skew 2138;
	parent house4B_tm_B_4_645;
	power_fraction 0.400000;
	current_fraction 0.300000;
	base_power LIGHTS*1.51;
	impedance_pf 1.000;
	current_pf 1.000;
	power_pf 1.000;
	impedance_fraction 0.300000;
	heatgain_fraction 0.9;
	name house4B_tm_B_4_645ZIPload91;
};

object waterheater {
	schedule_skew 2138;
	tank_volume 50;
	temperature 135;
	parent house4B_tm_B_4_645;
	heating_element_capacity 4.4 kW;
	thermostat_deadband 4.8;
	location INSIDE;
	demand water11*1;
	tank_setpoint 135.3;
	tank_UA 3.3;
	name house4B_tm_B_4_645waterheater92;
};

object triplex_line {
	phases BS;
	from tn_B_645;
	name tl_B_5_645;
	to tm_B_5_645;
	length 14.44;
	configuration trip_line_config;
	groupid Triplex_Line;
};

object triplex_meter {
	phases BS;
	nominal_voltage 120;
	name tm_B_5_645;
	groupid Triplex_Meter;
};

object house {
	schedule_skew 185;
	name house5B_tm_B_5_645;
	parent tm_B_5_645;
	floor_area 2059;
	cooling_COP 3.4;
	cooling_system_type ELECTRIC;
	heating_setpoint heating4*1;
	cooling_setpoint cooling2*1;
	air_temperature 70;
	thermal_integrity_level 5;
	heating_COP 3.0;
	mass_temperature 70;
	heating_system_type HEAT_PUMP;
};

object ZIPload {
	schedule_skew 185;
	parent house5B_tm_B_5_645;
	power_fraction 0.400000;
	current_fraction 0.300000;
	base_power LIGHTS*0.80;
	impedance_pf 1.000;
	current_pf 1.000;
	power_pf 1.000;
	impedance_fraction 0.300000;
	heatgain_fraction 0.9;
	name house5B_tm_B_5_645ZIPload96;
};

object waterheater {
	schedule_skew 185;
	tank_volume 50;
	temperature 135;
	parent house5B_tm_B_5_645;
	heating_element_capacity 4.1 kW;
	thermostat_deadband 4.8;
	location INSIDE;
	demand water3*1;
	tank_setpoint 137.2;
	tank_UA 3.1;
	name house5B_tm_B_5_645waterheater97;
};

object triplex_line {
	phases BS;
	from tn_B_645;
	name tl_B_6_645;
	to tm_B_6_645;
	length 19.10;
	configuration trip_line_config;
	groupid Triplex_Line;
};

object triplex_meter {
	phases BS;
	nominal_voltage 120;
	name tm_B_6_645;
	groupid Triplex_Meter;
};

object house {
	schedule_skew 2754;
	name house6B_tm_B_6_645;
	parent tm_B_6_645;
	floor_area 1936;
	cooling_COP 2.7;
	cooling_system_type ELECTRIC;
	heating_setpoint heating5*1;
	cooling_setpoint cooling1*1;
	air_temperature 70;
	thermal_integrity_level 5;
	heating_COP 2.7;
	mass_temperature 70;
	heating_system_type HEAT_PUMP;
};

object ZIPload {
	schedule_skew 2754;
	parent house6B_tm_B_6_645;
	power_fraction 0.400000;
	current_fraction 0.300000;
	base_power LIGHTS*1.11;
	impedance_pf 1.000;
	current_pf 1.000;
	power_pf 1.000;
	impedance_fraction 0.300000;
	heatgain_fraction 0.9;
	name house6B_tm_B_6_645ZIPload101;
};

object waterheater {
	schedule_skew 2754;
	tank_volume 50;
	temperature 135;
	parent house6B_tm_B_6_645;
	heating_element_capacity 4.6 kW;
	thermostat_deadband 4.9;
	location INSIDE;
	demand water20*1;
	tank_setpoint 140.0;
	tank_UA 3.3;
	name house6B_tm_B_6_645waterheater102;
};

object triplex_line {
	phases BS;
	from tn_B_645;
	name tl_B_7_645;
	to tm_B_7_645;
	length 19.90;
	configuration trip_line_config;
	groupid Triplex_Line;
};

object triplex_meter {
	phases BS;
	nominal_voltage 120;
	name tm_B_7_645;
	groupid Triplex_Meter;
};

object house {
	schedule_skew 238;
	name house7B_tm_B_7_645;
	parent tm_B_7_645;
	floor_area 1738;
	cooling_COP 2.9;
	cooling_system_type ELECTRIC;
	heating_setpoint heating8*1;
	cooling_setpoint cooling1*1;
	air_temperature 70;
	thermal_integrity_level 4;
	heating_COP 2.7;
	mass_temperature 70;
	heating_system_type HEAT_PUMP;
};

object ZIPload {
	schedule_skew 238;
	parent house7B_tm_B_7_645;
	power_fraction 0.400000;
	current_fraction 0.300000;
	base_power LIGHTS*0.76;
	impedance_pf 1.000;
	current_pf 1.000;
	power_pf 1.000;
	impedance_fraction 0.300000;
	heatgain_fraction 0.9;
	name house7B_tm_B_7_645ZIPload106;
};

object waterheater {
	schedule_skew 238;
	tank_volume 50;
	temperature 135;
	parent house7B_tm_B_7_645;
	heating_element_capacity 4.5 kW;
	thermostat_deadband 5.7;
	location INSIDE;
	demand water19*1;
	tank_setpoint 128.8;
	tank_UA 2.9;
	name house7B_tm_B_7_645waterheater107;
};

object triplex_line {
	phases BS;
	from tn_B_645;
	name tl_B_8_645;
	to tm_B_8_645;
	length 19.22;
	configuration trip_line_config;
	groupid Triplex_Line;
};

object triplex_meter {
	phases BS;
	nominal_voltage 120;
	name tm_B_8_645;
	groupid Triplex_Meter;
};

object house {
	schedule_skew 534;
	name house8B_tm_B_8_645;
	parent tm_B_8_645;
	floor_area 2481;
	cooling_COP 3.8;
	cooling_system_type ELECTRIC;
	heating_setpoint heating1*1;
	cooling_setpoint cooling3*1;
	air_temperature 70;
	thermal_integrity_level 4;
	mass_temperature 70;
	heating_system_type GAS;
};

object ZIPload {
	schedule_skew 534;
	parent house8B_tm_B_8_645;
	power_fraction 0.400000;
	current_fraction 0.300000;
	base_power LIGHTS*1.02;
	impedance_pf 1.000;
	current_pf 1.000;
	power_pf 1.000;
	impedance_fraction 0.300000;
	heatgain_fraction 0.9;
	name house8B_tm_B_8_645ZIPload111;
};

object triplex_line {
	phases BS;
	from tn_B_645;
	name tl_B_9_645;
	to tm_B_9_645;
	length 17.23;
	configuration trip_line_config;
	groupid Triplex_Line;
};

object triplex_meter {
	phases BS;
	nominal_voltage 120;
	name tm_B_9_645;
	groupid Triplex_Meter;
};

object house {
	schedule_skew -437;
	name house9B_tm_B_9_645;
	parent tm_B_9_645;
	floor_area 1909;
	cooling_COP 3.1;
	cooling_system_type ELECTRIC;
	heating_setpoint heating8*1;
	cooling_setpoint cooling1*1;
	air_temperature 70;
	thermal_integrity_level 3;
	mass_temperature 70;
	heating_system_type GAS;
};

object ZIPload {
	schedule_skew -437;
	parent house9B_tm_B_9_645;
	power_fraction 0.400000;
	current_fraction 0.300000;
	base_power LIGHTS*0.87;
	impedance_pf 1.000;
	current_pf 1.000;
	power_pf 1.000;
	impedance_fraction 0.300000;
	heatgain_fraction 0.9;
	name house9B_tm_B_9_645ZIPload115;
};

object triplex_line {
	phases BS;
	from tn_B_645;
	name tl_B_10_645;
	to tm_B_10_645;
	length 11.23;
	configuration trip_line_config;
	groupid Triplex_Line;
};

object triplex_meter {
	phases BS;
	nominal_voltage 120;
	name tm_B_10_645;
	groupid Triplex_Meter;
};

object house {
	schedule_skew -395;
	name house10B_tm_B_10_645;
	parent tm_B_10_645;
	floor_area 2174;
	cooling_COP 2.8;
	cooling_system_type ELECTRIC;
	heating_setpoint heating8*1;
	cooling_setpoint cooling6*1;
	air_temperature 70;
	thermal_integrity_level 3;
	heating_COP 2.5;
	mass_temperature 70;
	heating_system_type HEAT_PUMP;
};

object ZIPload {
	schedule_skew -395;
	parent house10B_tm_B_10_645;
	power_fraction 0.400000;
	current_fraction 0.300000;
	base_power LIGHTS*1.34;
	impedance_pf 1.000;
	current_pf 1.000;
	power_pf 1.000;
	impedance_fraction 0.300000;
	heatgain_fraction 0.9;
	name house10B_tm_B_10_645ZIPload119;
};

object waterheater {
	schedule_skew -395;
	tank_volume 50;
	temperature 135;
	parent house10B_tm_B_10_645;
	heating_element_capacity 4.7 kW;
	thermostat_deadband 2.1;
	location INSIDE;
	demand water11*1;
	tank_setpoint 130.8;
	tank_UA 2.1;
	name house10B_tm_B_10_645waterheater120;
};

object triplex_line {
	phases BS;
	from tn_B_645;
	name tl_B_11_645;
	to tm_B_11_645;
	length 10.89;
	configuration trip_line_config;
	groupid Triplex_Line;
};

object triplex_meter {
	phases BS;
	nominal_voltage 120;
	name tm_B_11_645;
	groupid Triplex_Meter;
};

object house {
	schedule_skew 577;
	name house11B_tm_B_11_645;
	parent tm_B_11_645;
	floor_area 2288;
	cooling_COP 2.9;
	cooling_system_type ELECTRIC;
	heating_setpoint heating8*1;
	cooling_setpoint cooling1*1;
	air_temperature 70;
	thermal_integrity_level 5;
	heating_COP 2.1;
	mass_temperature 70;
	heating_system_type HEAT_PUMP;
};

object ZIPload {
	schedule_skew 577;
	parent house11B_tm_B_11_645;
	power_fraction 0.400000;
	current_fraction 0.300000;
	base_power LIGHTS*1.22;
	impedance_pf 1.000;
	current_pf 1.000;
	power_pf 1.000;
	impedance_fraction 0.300000;
	heatgain_fraction 0.9;
	name house11B_tm_B_11_645ZIPload124;
};

object waterheater {
	schedule_skew 577;
	tank_volume 50;
	temperature 135;
	parent house11B_tm_B_11_645;
	heating_element_capacity 4.8 kW;
	thermostat_deadband 3.0;
	location INSIDE;
	demand water12*1;
	tank_setpoint 120.8;
	tank_UA 3.4;
	name house11B_tm_B_11_645waterheater125;
};

object triplex_line {
	phases BS;
	from tn_B_645;
	name tl_B_12_645;
	to tm_B_12_645;
	length 13.36;
	configuration trip_line_config;
	groupid Triplex_Line;
};

object triplex_meter {
	phases BS;
	nominal_voltage 120;
	name tm_B_12_645;
	groupid Triplex_Meter;
};

object house {
	schedule_skew 2037;
	name house12B_tm_B_12_645;
	parent tm_B_12_645;
	floor_area 2522;
	cooling_COP 3.3;
	cooling_system_type ELECTRIC;
	heating_setpoint heating5*1;
	cooling_setpoint cooling8*1;
	air_temperature 70;
	thermal_integrity_level 6;
	heating_COP 2.1;
	mass_temperature 70;
	heating_system_type HEAT_PUMP;
};

object ZIPload {
	schedule_skew 2037;
	parent house12B_tm_B_12_645;
	power_fraction 0.400000;
	current_fraction 0.300000;
	base_power LIGHTS*1.65;
	impedance_pf 1.000;
	current_pf 1.000;
	power_pf 1.000;
	impedance_fraction 0.300000;
	heatgain_fraction 0.9;
	name house12B_tm_B_12_645ZIPload129;
};

object waterheater {
	schedule_skew 2037;
	tank_volume 50;
	temperature 135;
	parent house12B_tm_B_12_645;
	heating_element_capacity 5.1 kW;
	thermostat_deadband 3.8;
	location INSIDE;
	demand water12*1;
	tank_setpoint 121.0;
	tank_UA 3.0;
	name house12B_tm_B_12_645waterheater130;
};

object triplex_line {
	phases BS;
	from tn_B_645;
	name tl_B_13_645;
	to tm_B_13_645;
	length 10.32;
	configuration trip_line_config;
	groupid Triplex_Line;
};

object triplex_meter {
	phases BS;
	nominal_voltage 120;
	name tm_B_13_645;
	groupid Triplex_Meter;
};

object house {
	schedule_skew -1566;
	name house13B_tm_B_13_645;
	parent tm_B_13_645;
	floor_area 1955;
	cooling_COP 3.6;
	cooling_system_type ELECTRIC;
	heating_setpoint heating4*1;
	cooling_setpoint cooling6*1;
	air_temperature 70;
	thermal_integrity_level 6;
	mass_temperature 70;
	heating_system_type GAS;
};

object ZIPload {
	schedule_skew -1566;
	parent house13B_tm_B_13_645;
	power_fraction 0.400000;
	current_fraction 0.300000;
	base_power LIGHTS*1.07;
	impedance_pf 1.000;
	current_pf 1.000;
	power_pf 1.000;
	impedance_fraction 0.300000;
	heatgain_fraction 0.9;
	name house13B_tm_B_13_645ZIPload134;
};

object triplex_line {
	phases BS;
	from tn_B_645;
	name tl_B_14_645;
	to tm_B_14_645;
	length 11.91;
	configuration trip_line_config;
	groupid Triplex_Line;
};

object triplex_meter {
	phases BS;
	nominal_voltage 120;
	name tm_B_14_645;
	groupid Triplex_Meter;
};

object house {
	schedule_skew 1100;
	name house14B_tm_B_14_645;
	parent tm_B_14_645;
	floor_area 1876;
	cooling_COP 2.6;
	cooling_system_type ELECTRIC;
	heating_setpoint heating3*1;
	cooling_setpoint cooling8*1;
	air_temperature 70;
	thermal_integrity_level 5;
	heating_COP 3.4;
	mass_temperature 70;
	heating_system_type HEAT_PUMP;
};

object ZIPload {
	schedule_skew 1100;
	parent house14B_tm_B_14_645;
	power_fraction 0.400000;
	current_fraction 0.300000;
	base_power LIGHTS*0.95;
	impedance_pf 1.000;
	current_pf 1.000;
	power_pf 1.000;
	impedance_fraction 0.300000;
	heatgain_fraction 0.9;
	name house14B_tm_B_14_645ZIPload138;
};

object waterheater {
	schedule_skew 1100;
	tank_volume 50;
	temperature 135;
	parent house14B_tm_B_14_645;
	heating_element_capacity 4.3 kW;
	thermostat_deadband 2.1;
	location INSIDE;
	demand water16*1;
	tank_setpoint 136.3;
	tank_UA 2.7;
	name house14B_tm_B_14_645waterheater139;
};

object triplex_line {
	phases BS;
	from tn_B_645;
	name tl_B_15_645;
	to tm_B_15_645;
	length 12.46;
	configuration trip_line_config;
	groupid Triplex_Line;
};

object triplex_meter {
	phases BS;
	nominal_voltage 120;
	name tm_B_15_645;
	groupid Triplex_Meter;
};

object house {
	schedule_skew 3355;
	name house15B_tm_B_15_645;
	parent tm_B_15_645;
	floor_area 1806;
	cooling_COP 3.9;
	cooling_system_type ELECTRIC;
	heating_setpoint heating7*1;
	cooling_setpoint cooling4*1;
	air_temperature 70;
	thermal_integrity_level 5;
	heating_COP 3.2;
	mass_temperature 70;
	heating_system_type HEAT_PUMP;
};

object ZIPload {
	schedule_skew 3355;
	parent house15B_tm_B_15_645;
	power_fraction 0.400000;
	current_fraction 0.300000;
	base_power LIGHTS*1.04;
	impedance_pf 1.000;
	current_pf 1.000;
	power_pf 1.000;
	impedance_fraction 0.300000;
	heatgain_fraction 0.9;
	name house15B_tm_B_15_645ZIPload143;
};

object waterheater {
	schedule_skew 3355;
	tank_volume 50;
	temperature 135;
	parent house15B_tm_B_15_645;
	heating_element_capacity 4.7 kW;
	thermostat_deadband 4.2;
	location INSIDE;
	demand water1*1;
	tank_setpoint 136.3;
	tank_UA 3.2;
	name house15B_tm_B_15_645waterheater144;
};

object triplex_line {
	phases BS;
	from tn_B_645;
	name tl_B_16_645;
	to tm_B_16_645;
	length 11.14;
	configuration trip_line_config;
	groupid Triplex_Line;
};

object triplex_meter {
	phases BS;
	nominal_voltage 120;
	name tm_B_16_645;
	groupid Triplex_Meter;
};

object house {
	schedule_skew -957;
	name house16B_tm_B_16_645;
	parent tm_B_16_645;
	floor_area 1670;
	cooling_COP 3.5;
	cooling_system_type ELECTRIC;
	heating_setpoint heating8*1;
	cooling_setpoint cooling3*1;
	air_temperature 70;
	thermal_integrity_level 4;
	heating_COP 2.6;
	mass_temperature 70;
	heating_system_type HEAT_PUMP;
};

object ZIPload {
	schedule_skew -957;
	parent house16B_tm_B_16_645;
	power_fraction 0.400000;
	current_fraction 0.300000;
	base_power LIGHTS*0.82;
	impedance_pf 1.000;
	current_pf 1.000;
	power_pf 1.000;
	impedance_fraction 0.300000;
	heatgain_fraction 0.9;
	name house16B_tm_B_16_645ZIPload148;
};

object waterheater {
	schedule_skew -957;
	tank_volume 50;
	temperature 135;
	parent house16B_tm_B_16_645;
	heating_element_capacity 4.8 kW;
	thermostat_deadband 2.4;
	location INSIDE;
	demand water20*1;
	tank_setpoint 135.6;
	tank_UA 2.9;
	name house16B_tm_B_16_645waterheater149;
};

object triplex_line {
	phases BS;
	from tn_B_645;
	name tl_B_17_645;
	to tm_B_17_645;
	length 10.34;
	configuration trip_line_config;
	groupid Triplex_Line;
};

object triplex_meter {
	phases BS;
	nominal_voltage 120;
	name tm_B_17_645;
	groupid Triplex_Meter;
};

object house {
	schedule_skew -1391;
	name house17B_tm_B_17_645;
	parent tm_B_17_645;
	floor_area 2042;
	cooling_COP 3.7;
	cooling_system_type ELECTRIC;
	heating_setpoint heating4*1;
	cooling_setpoint cooling5*1;
	air_temperature 70;
	thermal_integrity_level 6;
	heating_COP 2.9;
	mass_temperature 70;
	heating_system_type HEAT_PUMP;
};

object ZIPload {
	schedule_skew -1391;
	parent house17B_tm_B_17_645;
	power_fraction 0.400000;
	current_fraction 0.300000;
	base_power LIGHTS*1.55;
	impedance_pf 1.000;
	current_pf 1.000;
	power_pf 1.000;
	impedance_fraction 0.300000;
	heatgain_fraction 0.9;
	name house17B_tm_B_17_645ZIPload153;
};

object waterheater {
	schedule_skew -1391;
	tank_volume 50;
	temperature 135;
	parent house17B_tm_B_17_645;
	heating_element_capacity 4.3 kW;
	thermostat_deadband 3.1;
	location INSIDE;
	demand water11*1;
	tank_setpoint 139.0;
	tank_UA 3.3;
	name house17B_tm_B_17_645waterheater154;
};

object triplex_line {
	phases BS;
	from tn_B_645;
	name tl_B_18_645;
	to tm_B_18_645;
	length 11.36;