clock {
	timezone PST+8PDT;
	starttime '2000-01-01 00:00:00';
	stoptime '2000-01-02 00:00:00';
};

#set minimum_timestep=60;
#set profiler=1;
#set relax_naming_rules=1;
module generators;
module tape;
module climate;
module residential {
	implicit_enduses NONE;
};

module powerflow {
	solver_method NR;
	NR_iteration_limit 50;
};

object node {
	phases ABCN;
	name 83;
	bustype SWING;
	nominal_voltage 7200.0;
};

object overhead_line {
	phases ACBN;
	from 83;
	name 295;
	to 608;
	length 20.6237;
	configuration 528;
};

object overhead_line {
	phases ACBN;
	from 608;
	name 977;
	to 1310;
	length 13.0755;
	configuration 528;
};

object overhead_line {
	phases ACBN;
	from 1310;
	name 863;
	to 631;
	length 14.8233;
	configuration 528;
};

object overhead_line {
	phases ACBN;
	from 1310;
	name 88;
	to 344;
	length 10;
	configuration 528;
};

object overhead_line {
	phases ACBN;
	from 1310;
	name 1385;
	to 1136;
	length 10;
	configuration 528;
};

object overhead_line {
	phases ACBN;
	from 1310;
	name 56;
	to 1002;
	length 19.0913;
	configuration 528;
};

object overhead_line {
	phases ACBN;
	from 1002;
	name 1495;
	to 526;
	length 24.3563;
	configuration 528;
};

object fuse {
	phases ACBN;
	from 526;
	name 872;
	current_limit 9999.0 A;
	to 1360;
};

object overhead_line {
	phases ACBN;
	from 1360;
	name 9;
	to 426;
	length 82.2659;
	configuration 528;
};

object overhead_line {
	phases ACBN;
	from 426;
	name 982;
	to 540;
	length 87.5465;
	configuration 528;
};

object overhead_line {
	phases ACBN;
	from 540;
	name 1642;
	to 1508;
	length 281.156;
	configuration 528;
};

object overhead_line {
	phases ACBN;
	from 1508;
	name 700;
	to 1704;
	length 465.786;
	configuration 528;
};

object overhead_line {
	phases ACBN;
	from 1704;
	name 262;
	to 1044;
	length 212.612;
	configuration 528;
};

object overhead_line {
	phases ACBN;
	from 1044;
	name 563;
	to 140;
	length 302.735;
	configuration 528;
};

object overhead_line {
	phases ACBN;
	from 140;
	name 406;
	to 745;
	length 178.526;
	configuration 528;
};

object overhead_line {
	phases ACBN;
	from 745;
	name 975;
	to 1598;
	length 144.103;
	configuration 528;
};

object transformer {
	phases BS;
	from 1598;
	name 1152;
	to 100;
	configuration 752;
};

object triplex_node {
	phases BS;
	power_12 100;
	name 358;
	parent 100;
	nominal_voltage 120;
};

object overhead_line {
	phases ACBN;
	from 1598;
	name 1520;
	to 830;
	length 266.66;
	configuration 528;
};

object overhead_line {
	phases ACBN;
	from 830;
	name 542;
	to 581;
	length 153.517;
	configuration 528;
};

object overhead_line {
	phases ACBN;
	from 581;
	name 637;
	to 866;
	length 357.003;
	configuration 528;
};

object overhead_line {
	phases AN;
	from 866;
	name 1032;
	to 585;
	length 27.7071;
	configuration 1270;
};

object fuse {
	phases AN;
	from 585;
	name 67;
	current_limit 9999.0 A;
	to 687;
};

object overhead_line {
	phases AN;
	from 687;
	name 601;
	to 875;
	length 103.665;
	configuration 1270;
};

object transformer {
	phases AS;
	from 875;
	name 158;
	to 1601;
	configuration 752;
};

object triplex_node {
	phases AS;
	power_12 100;
	name 1425;
	parent 1601;
	nominal_voltage 120;
};

object triplex_node {
	phases AS;
	power_12 100;
	name 1314;
	parent 1601;
	nominal_voltage 120;
};

object overhead_line {
	phases ACBN;
	from 866;
	name 1229;
	to 1444;
	length 287.2;
	configuration 528;
};

object transformer {
	phases BS;
	from 1444;
	name 1542;
	to 1635;
	configuration 752;
};

object triplex_node {
	phases BS;
	power_12 100;
	name 1618;
	parent 1635;
	nominal_voltage 120;
};

object overhead_line {
	phases ACBN;
	from 1444;
	name 1612;
	to 508;
	length 211.226;
	configuration 528;
};

object transformer {
	phases CS;
	from 508;
	name 973;
	to 1154;
	configuration 752;
};

object triplex_node {
	phases CS;
	power_12 100;
	name 319;
	parent 1154;
	nominal_voltage 120;
};

object overhead_line {
	phases ACBN;
	from 508;
	name 243;
	to 1469;
	length 194.654;
	configuration 528;
};

object transformer {
	phases BS;
	from 1469;
	name 990;
	to 551;
	configuration 752;
};

object triplex_node {
	phases BS;
	power_12 100;
	name 1712;
	parent 551;
	nominal_voltage 120;
};

object overhead_line {
	phases ACBN;
	from 1469;
	name 944;
	to 1345;
	length 222.044;
	configuration 528;
};

object overhead_line {
	phases ACBN;
	from 1345;
	name 1364;
	to 1695;
	length 273.49;
	configuration 528;
};

object transformer {
	phases AS;
	from 1695;
	name 314;
	to 853;
	configuration 752;
};

object triplex_node {
	phases AS;
	power_12 100;
	name 1252;
	parent 853;
	nominal_voltage 120;
};

object overhead_line {
	phases CN;
	from 1695;
	name 636;
	to 185;
	length 26.5061;
	configuration 1699;
};

object fuse {
	phases CN;
	from 185;
	name 1472;
	current_limit 9999.0 A;
	to 1208;
};

object overhead_line {
	phases CN;
	from 1208;
	name 630;
	to 1278;
	length 80.8867;
	configuration 1699;
};

object transformer {
	phases CS;
	from 1278;
	name 76;
	to 1534;
	configuration 752;
};

object triplex_node {
	phases CS;
	power_12 1519.04;
	name 1085;
	parent 1534;
	nominal_voltage 120;
};

object overhead_line {
	phases CN;
	from 1695;
	name 706;
	to 1241;
	length 28.1181;
	configuration 1699;
};

object fuse {
	phases CN;
	from 1241;
	name 336;
	current_limit 9999.0 A;
	to 1020;
};

object overhead_line {
	phases CN;
	from 1020;
	name 457;
	to 900;
	length 241.85;
	configuration 1699;
};

object overhead_line {
	phases CN;
	from 900;
	name 1003;
	to 966;
	length 320.096;
	configuration 1699;
};

object overhead_line {
	phases CN;
	from 966;
	name 467;
	to 1553;
	length 319.967;
	configuration 1699;
};

object transformer {
	phases CS;
	from 1553;
	name 622;
	to 1660;
	configuration 752;
};

object triplex_node {
	phases CS;
	power_12 1655.3;
	name 300;
	parent 1660;
	nominal_voltage 120;
};

object overhead_line {
	phases CN;
	from 1553;
	name 211;
	to 616;
	length 203.088;
	configuration 1699;
};

object overhead_line {
	phases CN;
	from 616;
	name 780;
	to 51;
	length 158.947;
	configuration 1699;
};

object transformer {
	phases CS;
	from 51;
	name 971;
	to 1237;
	configuration 752;
};

object triplex_node {
	phases CS;
	power_12 10133.7;
	name 1267;
	parent 1237;
	nominal_voltage 120;
};

object overhead_line {
	phases AN;
	from 1695;
	name 459;
	to 768;
	length 24.9997;
	configuration 1270;
};

object fuse {
	phases AN;
	from 768;
	name 490;
	current_limit 9999.0 A;
	to 107;
};

object overhead_line {
	phases AN;
	from 107;
	name 561;
	to 1160;
	length 260.872;
	configuration 1270;
};

object transformer {
	phases AS;
	from 1160;
	name 1089;
	to 117;
	configuration 752;
};

object triplex_node {
	phases AS;
	power_12 100;
	name 1438;
	parent 117;
	nominal_voltage 120;
};

object overhead_line {
	phases AN;
	from 1160;
	name 809;
	to 171;
	length 174.815;
	configuration 1270;
};

object transformer {
	phases AS;
	from 171;
	name 310;
	to 1702;
	configuration 752;
};

object triplex_node {
	phases AS;
	power_12 100;
	name 753;
	parent 1702;
	nominal_voltage 120;
};

object triplex_node {
	phases AS;
	power_12 100;
	name 1292;
	parent 1702;
	nominal_voltage 120;
};

object overhead_line {
	phases AN;
	from 1160;
	name 77;
	to 1080;
	length 467.84;
	configuration 1270;
};

object transformer {
	phases AS;
	from 1080;
	name 1362;
	to 1685;
	configuration 752;
};

object triplex_node {
	phases AS;
	power_12 100;
	name 887;
	parent 1685;
	nominal_voltage 120;
};

object triplex_node {
	phases AS;
	power_12 100;
	name 1703;
	parent 1685;
	nominal_voltage 120;
};

object overhead_line {
	phases AN;
	from 1080;
	name 388;
	to 1075;
	length 372.94;
	configuration 1270;
};

object transformer {
	phases AS;
	from 1075;
	name 281;
	to 1500;
	configuration 752;
};

object triplex_node {
	phases AS;
	power_12 100;
	name 1588;
	parent 1500;
	nominal_voltage 120;
};

object overhead_line {
	phases AN;
	from 1075;
	name 430;
	to 825;
	length 288.845;
	configuration 1270;
};

object transformer {
	phases AS;
	from 825;
	name 614;
	to 567;
	configuration 752;
};

object triplex_node {
	phases AS;
	power_12 100;
	name 1410;
	parent 567;
	nominal_voltage 120;
};

object overhead_line {
	phases AN;
	from 1080;
	name 1269;
	to 1624;
	length 235.1;
	configuration 1270;
};

object overhead_line {
	phases AN;
	from 1624;
	name 1527;
	to 937;
	length 316.703;
	configuration 1270;
};

object transformer {
	phases AS;
	from 937;
	name 46;
	to 1582;
	configuration 752;
};

object triplex_node {
	phases AS;
	power_12 100;
	name 537;
	parent 1582;
	nominal_voltage 120;
};

object triplex_node {
	phases AS;
	power_12 100;
	name 1260;
	parent 1582;
	nominal_voltage 120;
};

object overhead_line {
	phases AN;
	from 937;
	name 930;
	to 1311;
	length 201.012;
	configuration 1270;
};

object transformer {
	phases AS;
	from 1311;
	name 1613;
	to 273;
	configuration 752;
};

object triplex_node {
	phases AS;
	power_12 100;
	name 732;
	parent 273;
	nominal_voltage 120;
};

object overhead_line {
	phases AN;
	from 1624;
	name 839;
	to 85;
	length 383.447;
	configuration 1270;
};

object transformer {
	phases AS;
	from 85;
	name 889;
	to 595;
	configuration 752;
};

object triplex_node {
	phases AS;
	power_12 100;
	name 565;
	parent 595;
	nominal_voltage 120;
};

object overhead_line {
	phases AN;
	from 85;
	name 166;
	to 1224;
	length 321.462;
	configuration 1270;
};

object transformer {
	phases AS;
	from 1224;
	name 892;
	to 473;
	configuration 752;
};

object triplex_node {
	phases AS;
	power_12 100;
	name 893;
	parent 473;
	nominal_voltage 120;
};

object triplex_node {
	phases AS;
	power_12 100;
	name 683;
	parent 473;
	nominal_voltage 120;
};

object overhead_line {
	phases AN;
	from 1224;
	name 389;
	to 1693;
	length 211.036;
	configuration 1270;
};

object transformer {
	phases AS;
	from 1693;
	name 1043;
	to 285;
	configuration 752;
};

object triplex_node {
	phases AS;
	power_12 100;
	name 785;
	parent 285;
	nominal_voltage 120;
};

object overhead_line {
	phases AN;
	from 1693;
	name 1324;
	to 882;
	length 202.261;
	configuration 1270;
};

object transformer {
	phases AS;
	from 882;
	name 1456;
	to 1268;
	configuration 752;
};

object triplex_node {
	phases AS;
	power_12 100;
	name 1030;
	parent 1268;
	nominal_voltage 120;
};

object triplex_node {
	phases AS;
	power_12 100;
	name 1568;
	parent 1268;
	nominal_voltage 120;
};

object overhead_line {
	phases AN;
	from 882;
	name 1153;
	to 1259;
	length 217.697;
	configuration 1270;
};

object transformer {
	phases AS;
	from 1259;
	name 1630;
	to 725;
	configuration 752;
};

object triplex_node {
	phases AS;
	power_12 100;
	name 205;
	parent 725;
	nominal_voltage 120;
};

object triplex_node {
	phases AS;
	power_12 100;
	name 1201;
	parent 725;
	nominal_voltage 120;
};

object overhead_line {
	phases AN;
	from 882;
	name 580;
	to 465;
	length 198.705;
	configuration 1270;
};

object transformer {
	phases AS;
	from 465;
	name 605;
	to 277;
	configuration 752;
};

object triplex_node {
	phases AS;
	power_12 100;
	name 261;
	parent 277;
	nominal_voltage 120;
};

object overhead_line {
	phases AN;
	from 1693;
	name 1603;
	to 66;
	length 202.235;
	configuration 1270;
};

object transformer {
	phases AS;
	from 66;
	name 715;
	to 849;
	configuration 752;
};

object triplex_node {
	phases AS;
	power_12 100;
	name 1423;
	parent 849;
	nominal_voltage 120;
};

object overhead_line {
	phases AN;
	from 1624;
	name 828;
	to 1641;
	length 141.214;
	configuration 1270;
};

object transformer {
	phases AS;
	from 1641;
	name 47;
	to 80;
	configuration 752;
};

object triplex_node {
	phases AS;
	power_12 100;
	name 257;
	parent 80;
	nominal_voltage 120;
};

object overhead_line {
	phases ACBN;
	from 1695;
	name 861;
	to 909;
	length 335.444;
	configuration 528;
};

object transformer {
	phases BS;
	from 909;
	name 681;
	to 868;
	configuration 752;
};

object triplex_node {
	phases BS;
	power_12 100;
	name 1667;
	parent 868;
	nominal_voltage 120;
};

object overhead_line {
	phases CN;
	from 909;
	name 570;
	to 1293;
	length 26.6007;
	configuration 1699;
};

object fuse {
	phases CN;
	from 1293;
	name 888;
	current_limit 9999.0 A;
	to 1264;
};

object overhead_line {
	phases CN;
	from 1264;
	name 1066;
	to 30;
	length 243.066;
	configuration 1699;
};

object transformer {
	phases CS;
	from 30;
	name 1175;
	to 1633;
	configuration 752;
};

object triplex_node {
	phases CS;
	power_12 4534.42;
	name 1589;
	parent 1633;
	nominal_voltage 120;
};

object overhead_line {
	phases CN;
	from 30;
	name 1453;
	to 371;
	length 305.297;
	configuration 1699;
};

object transformer {
	phases CS;
	from 371;
	name 1359;
	to 242;
	configuration 752;
};

object triplex_node {
	phases CS;
	power_12 3757.23;
	name 1502;
	parent 242;
	nominal_voltage 120;
};

object overhead_line {
	phases ACBN;
	from 909;
	name 1271;
	to 1257;
	length 386.822;
	configuration 528;
};

object overhead_line {
	phases ACBN;
	from 1257;
	name 128;
	to 201;
	length 137.975;
	configuration 528;
};

object transformer {
	phases BS;
	from 201;
	name 1296;
	to 548;
	configuration 752;
};

object triplex_node {
	phases BS;
	power_12 100;
	name 1195;
	parent 548;
	nominal_voltage 120;
};

object overhead_line {
	phases AN;
	from 201;
	name 648;
	to 1628;
	length 25.0001;
	configuration 1270;
};

object fuse {
	phases AN;
	from 1628;
	name 1576;
	current_limit 9999.0 A;
	to 754;
};

object overhead_line {
	phases AN;
	from 754;
	name 35;
	to 97;
	length 118.283;
	configuration 1270;
};

object transformer {
	phases AS;
	from 97;
	name 1442;
	to 992;
	configuration 752;
};

object triplex_node {
	phases AS;
	power_12 100;
	name 309;
	parent 992;
	nominal_voltage 120;
};

object overhead_line {
	phases AN;
	from 97;
	name 1707;
	to 617;
	length 218.301;
	configuration 1270;
};

object overhead_line {
	phases AN;
	from 617;
	name 1146;
	to 1053;
	length 286.217;
	configuration 1270;
};

object transformer {
	phases AS;
	from 1053;
	name 1478;
	to 466;
	configuration 752;
};

object triplex_node {
	phases AS;
	power_12 100;
	name 160;
	parent 466;
	nominal_voltage 120;
};

object overhead_line {
	phases AN;
	from 201;
	name 800;
	to 1287;
	length 428.982;
	configuration 834;
};

object transformer {
	phases AS;
	from 1287;
	name 713;
	to 1379;
	configuration 752;
};

object triplex_node {
	phases AS;
	power_12 100;
	name 743;
	parent 1379;
	nominal_voltage 120;
};

object triplex_node {
	phases AS;
	power_12 100;
	name 795;
	parent 1379;
	nominal_voltage 120;
};

object overhead_line {
	phases ACBN;
	from 201;
	name 755;
	to 1119;
	length 155.789;
	configuration 528;
};

object underground_line {
	phases ACBN;
	from 1119;
	name 578;
	to 545;
	length 24.9999;
	configuration 1118;
};

object fuse {
	phases ACB;
	from 545;
	name 93;
	current_limit 9999.0 A;
	to 640;
};

object underground_line {
	phases ACB;
	from 640;
	name 707;
	to 968;
	length 201.626;
	configuration 1118;
};

object transformer {
	phases AS;
	from 968;
	name 442;
	to 1306;
	configuration 752;
};

object triplex_node {
	phases AS;
	power_12 3072.58;
	name 137;
	parent 1306;
	nominal_voltage 120;
};

object overhead_line {
	phases ACBN;
	from 1119;
	name 1404;
	to 10;
	length 172.639;
	configuration 528;
};

object transformer {
	phases BS;
	from 10;
	name 642;
	to 239;
	configuration 752;
};

object triplex_node {
	phases BS;
	power_12 100;
	name 1679;
	parent 239;
	nominal_voltage 120;
};

object triplex_node {
	phases BS;
	power_12 100;
	name 1697;
	parent 239;
	nominal_voltage 120;
};

object triplex_node {
	phases BS;
	power_12 100;
	name 899;
	parent 239;
	nominal_voltage 120;
};

object overhead_line {
	phases ACBN;
	from 10;
	name 1386;
	to 1354;
	length 561.815;
	configuration 528;
};

object overhead_line {
	phases AN;
	from 1354;
	name 1250;
	to 802;
	length 22.8798;
	configuration 834;
};

object fuse {
	phases AN;
	from 802;
	name 1042;
	current_limit 9999.0 A;
	to 659;
};

object overhead_line {
	phases AN;
	from 659;
	name 1418;
	to 170;
	length 64.7094;
	configuration 834;
};

object line_configuration {
	name 834;
	spacing 116;
	conductor_N 43;
	conductor_A 43;
	conductor_C 791;
	conductor_B 791;
};

object overhead_line {
	phases AN;
	from 170;
	name 431;
	to 307;
	length 186.866;
	configuration 834;
};

object transformer {
	phases AS;
	from 307;
	name 1059;
	to 1079;
	configuration 752;
};

object triplex_node {
	phases AS;
	power_12 100;
	name 538;
	parent 1079;
	nominal_voltage 120;
};

object triplex_node {
	phases AS;
	power_12 100;
	name 674;
	parent 1079;
	nominal_voltage 120;
};

object overhead_line {
	phases ACBN;
	from 1354;
	name 592;
	to 209;
	length 169.689;
	configuration 528;
};

object overhead_line {
	phases ACBN;
	from 209;
	name 199;
	to 1083;
	length 293.041;
	configuration 528;
};

object overhead_line {
	phases ACBN;
	from 1083;
	name 767;
	to 420;
	length 421.542;
	configuration 528;
};

object overhead_line {
	phases CN;
	from 420;
	name 1518;
	to 1172;
	length 25;
	configuration 1699;
};

object fuse {
	phases CN;
	from 1172;
	name 446;
	current_limit 9999.0 A;
	to 835;
};

object overhead_line {
	phases CN;
	from 835;
	name 619;
	to 699;
	length 235.932;
	configuration 1699;
};

object transformer {
	phases CS;
	from 699;
	name 711;
	to 812;
	configuration 752;
};

object triplex_node {
	phases CS;
	power_12 2697.44;
	name 981;
	parent 812;
	nominal_voltage 120;
};

object overhead_line {
	phases CN;
	from 699;
	name 1180;
	to 790;
	length 78.2066;
	configuration 1699;
};

object transformer {
	phases CS;
	from 790;
	name 1300;
	to 1432;
	configuration 752;
};

object triplex_node {
	phases CS;
	power_12 2172.58;
	name 363;
	parent 1432;
	nominal_voltage 120;
};

object triplex_node {
	phases CS;
	power_12 787.278;
	name 855;
	parent 1432;
	nominal_voltage 120;
};

object overhead_line {
	phases CN;
	from 790;
	name 1068;
	to 215;
	length 187.008;
	configuration 1699;
};

object overhead_line {
	phases CN;
	from 215;
	name 1014;
	to 372;
	length 268.521;
	configuration 1699;
};

object overhead_line {
	phases CN;
	from 372;
	name 1675;
	to 356;
	length 144.519;
	configuration 1699;
};

object overhead_line {
	phases CN;
	from 356;
	name 1099;
	to 387;
	length 159.822;
	configuration 1699;
};

object overhead_line {
	phases CN;
	from 387;
	name 1024;
	to 58;
	length 192.016;
	configuration 1699;
};

object overhead_line {
	phases CN;
	from 58;
	name 123;
	to 1550;
	length 242.98;
	configuration 1699;
};

object transformer {
	phases CS;
	from 1550;
	name 62;
	to 1193;
	configuration 752;
};

object triplex_node {
	phases CS;
	power_12 2914.44;
	name 1299;
	parent 1193;
	nominal_voltage 120;
};

object overhead_line {
	phases CN;
	from 387;
	name 49;
	to 1462;
	length 336;
	configuration 1699;
};

object transformer {
	phases CS;
	from 1462;
	name 917;
	to 55;
	configuration 752;
};

object triplex_node {
	phases CS;
	power_12 2540.99;
	name 1206;
	parent 55;
	nominal_voltage 120;
};

object overhead_line {
	phases CN;
	from 215;
	name 1562;
	to 429;
	length 115.812;
	configuration 1699;
};

object transformer {
	phases CS;
	from 429;
	name 841;
	to 1434;
	configuration 752;
};

object triplex_node {
	phases CS;
	power_12 4567.22;
	name 822;
	parent 1434;
	nominal_voltage 120;
};

object overhead_line {
	phases ACBN;
	from 420;
	name 103;
	to 375;
	length 546.446;
	configuration 528;
};

object transformer {
	phases BS;
	from 375;
	name 423;
	to 1408;
	configuration 752;
};

object triplex_node {
	phases BS;
	power_12 100;
	name 1115;
	parent 1408;
	nominal_voltage 120;
};

object overhead_line {
	phases ACBN;
	from 375;
	name 256;
	to 1337;
	length 131.068;
	configuration 528;
};

object overhead_line {
	phases ACBN;
	from 1337;
	name 718;
	to 1174;
	length 222.516;
	configuration 528;
};

object switch {
	status CLOSED;
	phases ACBN;
	from 1174;
	name 1104;
	to 1678;
};

object switch {
	status CLOSED;
	phases ACBN;
	from 1678;
	name 513;
	to 690;
};

object overhead_line {
	phases ACBN;
	from 690;
	name 837;
	to 312;
	length 25.0002;
	configuration 528;
};

object overhead_line {
	phases ACBN;
	from 312;
	name 1436;
	to 1234;
	length 226.378;
	configuration 528;
};

object transformer {
	phases AS;
	from 1234;
	name 102;
	to 860;
	configuration 752;
};

object triplex_node {
	phases AS;
	power_12 100;
	name 1514;
	parent 860;
	nominal_voltage 120;
};

object overhead_line {
	phases ACBN;
	from 1234;
	name 1165;
	to 65;
	length 222.764;
	configuration 528;
};

object overhead_line {
	phases ACBN;
	from 65;
	name 1273;
	to 38;
	length 489.892;
	configuration 528;
};

object overhead_line {
	phases ACBN;
	from 38;
	name 879;
	to 407;
	length 558.193;
	configuration 528;
};

object overhead_line {
	phases ACBN;
	from 407;
	name 1507;
	to 908;
	length 76.3128;
	configuration 528;
};

object overhead_line {
	phases ACBN;
	from 908;
	name 1297;
	to 574;
	length 329.719;
	configuration 528;
};

object transformer {
	phases BS;
	from 574;
	name 474;
	to 294;
	configuration 752;
};

object triplex_node {
	phases BS;
	power_12 100;
	name 404;
	parent 294;
	nominal_voltage 120;
};

object triplex_node {
	phases BS;
	power_12 100;
	name 1394;
	parent 294;
	nominal_voltage 120;
};

object triplex_node {
	phases BS;
	power_12 100;
	name 303;
	parent 294;
	nominal_voltage 120;
};

object overhead_line {
	phases ACBN;
	from 574;
	name 1532;
	to 1159;
	length 311.671;
	configuration 528;
};

object overhead_line {
	phases AN;
	from 1159;
	name 652;
	to 777;
	length 29.6986;
	configuration 1270;
};

object fuse {
	phases AN;
	from 777;
	name 1413;
	current_limit 9999.0 A;
	to 950;
};

object overhead_line {
	phases AN;
	from 950;
	name 846;
	to 1645;
	length 99.3975;
	configuration 1270;
};

object transformer {
	phases AS;
	from 1645;
	name 246;
	to 89;
	configuration 752;
};

object triplex_node {
	phases AS;
	power_12 100;
	name 156;
	parent 89;
	nominal_voltage 120;
};

object overhead_line {
	phases AN;
	from 1645;
	name 1320;
	to 1133;
	length 278.816;
	configuration 1270;
};

object overhead_line {
	phases AN;
	from 1133;
	name 154;
	to 1041;
	length 354.071;
	configuration 1270;
};

object overhead_line {
	phases AN;
	from 1041;
	name 94;
	to 396;
	length 348.862;
	configuration 1270;
};

object overhead_line {
	phases AN;
	from 396;
	name 881;
	to 999;
	length 238.633;
	configuration 1270;
};

object overhead_line {
	phases AN;
	from 999;
	name 527;
	to 104;
	length 333.034;
	configuration 1270;
};

object transformer {
	phases AS;
	from 104;
	name 1170;
	to 1393;
	configuration 752;
};

object triplex_node {
	phases AS;
	power_12 100;
	name 1511;
	parent 1393;
	nominal_voltage 120;
};

object overhead_line {
	phases AN;
	from 104;
	name 81;
	to 530;
	length 285.607;
	configuration 1270;
};

object overhead_line {
	phases AN;
	from 530;
	name 1494;
	to 1521;
	length 108.49;
	configuration 1270;
};

object transformer {
	phases AS;
	from 1521;
	name 907;
	to 1370;
	configuration 752;
};

object triplex_node {
	phases AS;
	power_12 100;
	name 1353;
	parent 1370;
	nominal_voltage 120;
};

object triplex_node {
	phases AS;
	power_12 100;
	name 993;
	parent 1370;
	nominal_voltage 120;
};

object overhead_line {
	phases A;
	from 530;
	name 1650;
	to 255;
	length 159.789;
	configuration 1270;
};

object underground_line {
	phases A;
	from 255;
	name 845;
	to 877;
	length 215.958;
	configuration 1118;
};

object overhead_line {
	phases AN;
	from 999;
	name 1343;
	to 557;
	length 222.075;
	configuration 1270;
};

object transformer {
	phases AS;
	from 557;
	name 435;
	to 296;
	configuration 752;
};

object triplex_node {
	phases AS;
	power_12 100;
	name 63;
	parent 296;
	nominal_voltage 120;
};

object overhead_line {
	phases AN;
	from 1041;
	name 1396;
	to 1637;
	length 252;
	configuration 1270;
};

object transformer {
	phases AS;
	from 1637;
	name 1446;
	to 253;
	configuration 752;
};

object triplex_node {
	phases AS;
	power_12 100;
	name 1021;
	parent 253;
	nominal_voltage 120;
};

object overhead_line {
	phases ACBN;
	from 1159;
	name 397;
	to 447;
	length 351.049;
	configuration 528;
};

object transformer {
	phases AS;
	from 447;
	name 350;
	to 1526;
	configuration 752;
};

object triplex_node {
	phases AS;
	power_12 100;
	name 736;
	parent 1526;
	nominal_voltage 120;
};

object overhead_line {
	phases ACBN;
	from 447;
	name 1048;
	to 1564;
	length 78.1503;
	configuration 528;
};

object overhead_line {
	phases AN;
	from 1159;
	name 1517;
	to 480;
	length 29.7713;
	configuration 1270;
};

object fuse {
	phases AN;
	from 480;
	name 478;
	current_limit 9999.0 A;
	to 482;
};

object overhead_line {
	phases AN;
	from 482;
	name 666;
	to 1196;
	length 486.611;
	configuration 1270;
};

object line_configuration {
	name 1270;
	spacing 116;
	conductor_N 680;
	conductor_A 680;
	conductor_C 791;
	conductor_B 791;
};

object overhead_line {
	phases AN;
	from 1196;
	name 792;
	to 24;
	length 346.911;
	configuration 1270;
};

object transformer {
	phases AS;
	from 24;
	name 813;
	to 106;
	configuration 752;
};

object triplex_node {
	phases AS;
	power_12 100;
	name 1578;
	parent 106;
	nominal_voltage 120;
};

object triplex_node {
	phases AS;
	power_12 100;
	name 125;
	parent 106;
	nominal_voltage 120;
};

object overhead_line {
	phases AN;
	from 24;
	name 805;
	to 694;
	length 375.825;
	configuration 834;
};

object transformer {
	phases AS;
	from 694;
	name 1061;
	to 224;
	configuration 752;
};

object triplex_node {
	phases AS;
	power_12 100;
	name 1457;
	parent 224;
	nominal_voltage 120;
};

object overhead_line {
	phases AN;
	from 694;
	name 398;
	to 1651;
	length 341.47;
	configuration 834;
};

object transformer {
	phases AS;
	from 1651;
	name 469;
	to 1510;
	configuration 752;
};

object triplex_node {
	phases AS;
	power_12 100;
	name 286;
	parent 1510;
	nominal_voltage 120;
};

object overhead_line {
	phases AN;
	from 1651;
	name 984;
	to 61;
	length 343.023;
	configuration 834;
};

object overhead_line {
	phases AN;
	from 61;
	name 392;
	to 976;
	length 226.764;
	configuration 1270;
};

object transformer {
	phases AS;
	from 976;
	name 1467;
	to 241;
	configuration 752;
};

object triplex_node {
	phases AS;
	power_12 100;
	name 850;
	parent 241;
	nominal_voltage 120;
};

object overhead_line {
	phases AN;
	from 24;
	name 181;
	to 186;
	length 157.693;
	configuration 1270;
};

object transformer {
	phases AS;
	from 186;
	name 1023;
	to 927;
	configuration 752;
};

object triplex_node {
	phases AS;
	power_12 100;
	name 163;
	parent 927;
	nominal_voltage 120;
};

object overhead_line {
	phases AN;
	from 24;
	name 621;
	to 952;
	length 196.101;
	configuration 834;
};

object overhead_line {
	phases AN;
	from 952;
	name 1056;
	to 378;
	length 243.492;
	configuration 834;
};

object transformer {
	phases AS;
	from 378;
	name 274;
	to 1261;
	configuration 752;
};

object triplex_node {
	phases AS;
	power_12 100;
	name 723;
	parent 1261;
	nominal_voltage 120;
};

object triplex_node {
	phases AS;
	power_12 100;
	name 1280;
	parent 1261;
	nominal_voltage 120;
};

object overhead_line {
	phases AN;
	from 378;
	name 268;
	to 1713;
	length 198.508;
	configuration 834;
};

object overhead_line {
	phases AN;
	from 1713;
	name 735;
	to 635;
	length 293.785;
	configuration 1270;
};

object overhead_line {
	phases AN;
	from 635;
	name 867;
	to 190;
	length 215.575;
	configuration 1270;
};

object transformer {
	phases AS;
	from 190;
	name 934;
	to 1202;
	configuration 752;
};

object triplex_node {
	phases AS;
	power_12 100;
	name 1435;
	parent 1202;
	nominal_voltage 120;
};

object triplex_node {
	phases AS;
	power_12 100;
	name 72;
	parent 1202;
	nominal_voltage 120;
};

object overhead_line {
	phases AN;
	from 190;
	name 13;
	to 144;
	length 216.201;
	configuration 1270;
};

object transformer {
	phases AS;
	from 144;
	name 1173;
	to 130;
	configuration 752;
};

object triplex_node {
	phases AS;
	power_12 100;
	name 338;
	parent 130;
	nominal_voltage 120;
};

object overhead_line {
	phases AN;
	from 1713;
	name 333;
	to 1332;
	length 177.49;
	configuration 834;
};

object transformer {
	phases AS;
	from 1332;
	name 1387;
	to 219;
	configuration 752;
};

object triplex_node {
	phases AS;
	power_12 100;
	name 443;
	parent 219;
	nominal_voltage 120;
};

object overhead_line {
	phases AN;
	from 378;
	name 1475;
	to 1113;
	length 116.619;
	configuration 1270;
};

object overhead_line {
	phases AN;
	from 1113;
	name 661;
	to 244;
	length 245.206;
	configuration 1270;
};

object overhead_line {
	phases AN;
	from 244;
	name 1643;
	to 1351;
	length 361.047;
	configuration 1270;
};

object overhead_line {
	phases AN;
	from 1351;
	name 1331;
	to 1236;
	length 204.81;
	configuration 1270;
};

object transformer {
	phases AS;
	from 1236;
	name 439;
	to 1185;
	configuration 752;
};

object triplex_node {
	phases AS;
	power_12 100;
	name 602;
	parent 1185;
	nominal_voltage 120;
};

object overhead_line {
	phases AN;
	from 1196;
	name 1071;
	to 1034;
	length 150.83;
	configuration 1270;
};

object transformer {
	phases AS;
	from 1034;
	name 970;
	to 6;
	configuration 752;
};

object triplex_node {
	phases AS;
	power_12 100;
	name 1584;
	parent 6;
	nominal_voltage 120;
};

object overhead_line {
	phases ACBN;
	from 908;
	name 331;
	to 1636;
	length 361.26;
	configuration 528;
};

object overhead_line {
	phases AN;
	from 1636;
	name 3;
	to 874;
	length 25.0002;
	configuration 1270;
};

object fuse {
	phases AN;
	from 874;
	name 1350;
	current_limit 9999.0 A;
	to 1225;
};

object overhead_line {
	phases AN;
	from 1225;
	name 1652;
	to 703;
	length 81.4961;
	configuration 1270;
};

object overhead_line {
	phases AN;
	from 703;
	name 347;
	to 921;
	length 177.052;
	configuration 1270;
};

object transformer {
	phases AS;
	from 921;
	name 1595;
	to 493;
	configuration 752;
};

object triplex_node {
	phases AS;
	power_12 100;
	name 324;
	parent 493;
	nominal_voltage 120;
};

object overhead_line {
	phases ACBN;
	from 1636;
	name 1515;
	to 633;
	length 303.262;
	configuration 528;
};

object overhead_line {
	phases ACBN;
	from 633;
	name 359;
	to 1074;
	length 240.007;
	configuration 528;
};

object transformer {
	phases BS;
	from 1074;
	name 50;
	to 110;
	configuration 752;
};

object triplex_node {
	phases BS;
	power_12 100;