clock {
	timezone PST+8PDT;
	starttime '2000-01-01 00:00:00';
	stoptime '2000-01-02 00:00:00';
};

#set minimum_timestep=60;
#set profiler=1;
#set relax_naming_rules=1;
module generators;
module tape;
module climate;
module residential {
	implicit_enduses NONE;
};

module powerflow {
	solver_method NR;
	NR_iteration_limit 50;
};

object node {
	phases ABCN;
	name 1034;
	bustype SWING;
	nominal_voltage 7200.0;
};

object overhead_line {
	phases ACBN;
	from 1034;
	name 1573;
	to 1494;
	length 20.6237;
	configuration 1679;
};

object overhead_line {
	phases ACBN;
	from 1494;
	name 459;
	to 1324;
	length 13.0755;
	configuration 1679;
};

object overhead_line {
	phases ACBN;
	from 1324;
	name 1539;
	to 216;
	length 14.8233;
	configuration 1679;
};

object overhead_line {
	phases ACBN;
	from 1324;
	name 526;
	to 843;
	length 10;
	configuration 1679;
};

object overhead_line {
	phases ACBN;
	from 1324;
	name 1743;
	to 504;
	length 10;
	configuration 1679;
};

object overhead_line {
	phases ACBN;
	from 1324;
	name 730;
	to 347;
	length 19.0913;
	configuration 1679;
};

object overhead_line {
	phases ACBN;
	from 347;
	name 886;
	to 1432;
	length 24.3563;
	configuration 1679;
};

object fuse {
	phases ACBN;
	from 1432;
	name 513;
	current_limit 9999.0 A;
	to 857;
};

object overhead_line {
	phases ACBN;
	from 857;
	name 659;
	to 1203;
	length 82.2659;
	configuration 1679;
};

object overhead_line {
	phases ACBN;
	from 1203;
	name 1270;
	to 840;
	length 87.5465;
	configuration 1679;
};

object overhead_line {
	phases ACBN;
	from 840;
	name 1621;
	to 231;
	length 281.156;
	configuration 1679;
};

object overhead_line {
	phases ACBN;
	from 231;
	name 1279;
	to 100;
	length 465.786;
	configuration 1679;
};

object overhead_line {
	phases ACBN;
	from 100;
	name 132;
	to 474;
	length 212.612;
	configuration 1679;
};

object overhead_line {
	phases ACBN;
	from 474;
	name 787;
	to 166;
	length 302.735;
	configuration 1679;
};

object overhead_line {
	phases ACBN;
	from 166;
	name 728;
	to 1276;
	length 178.526;
	configuration 1679;
};

object overhead_line {
	phases ACBN;
	from 1276;
	name 737;
	to 1768;
	length 144.103;
	configuration 1679;
};

object transformer {
	phases BS;
	from 1768;
	name 1101;
	to 1716;
	configuration 115;
};

object triplex_node {
	phases BS;
	power_12 100;
	name 1441;
	parent 1716;
	nominal_voltage 120;
};

object overhead_line {
	phases ACBN;
	from 1768;
	name 579;
	to 1308;
	length 266.66;
	configuration 1679;
};

object overhead_line {
	phases ACBN;
	from 1308;
	name 1669;
	to 975;
	length 153.517;
	configuration 1679;
};

object overhead_line {
	phases ACBN;
	from 975;
	name 352;
	to 604;
	length 357.003;
	configuration 1679;
};

object overhead_line {
	phases AN;
	from 604;
	name 1092;
	to 902;
	length 27.7071;
	configuration 1641;
};

object fuse {
	phases AN;
	from 902;
	name 477;
	current_limit 9999.0 A;
	to 136;
};

object overhead_line {
	phases AN;
	from 136;
	name 1380;
	to 145;
	length 103.665;
	configuration 1641;
};

object transformer {
	phases AS;
	from 145;
	name 1726;
	to 1260;
	configuration 115;
};

object triplex_node {
	phases AS;
	power_12 100;
	name 523;
	parent 1260;
	nominal_voltage 120;
};

object triplex_node {
	phases AS;
	power_12 100;
	name 1138;
	parent 1260;
	nominal_voltage 120;
};

object overhead_line {
	phases ACBN;
	from 604;
	name 1723;
	to 162;
	length 287.2;
	configuration 1679;
};

object transformer {
	phases BS;
	from 162;
	name 398;
	to 772;
	configuration 115;
};

object triplex_node {
	phases BS;
	power_12 100;
	name 1343;
	parent 772;
	nominal_voltage 120;
};

object overhead_line {
	phases ACBN;
	from 162;
	name 235;
	to 765;
	length 211.226;
	configuration 1679;
};

object transformer {
	phases CS;
	from 765;
	name 1545;
	to 1523;
	configuration 115;
};

object triplex_node {
	phases CS;
	power_12 100;
	name 1202;
	parent 1523;
	nominal_voltage 120;
};

object overhead_line {
	phases ACBN;
	from 765;
	name 305;
	to 919;
	length 194.654;
	configuration 1679;
};

object transformer {
	phases BS;
	from 919;
	name 922;
	to 1594;
	configuration 115;
};

object triplex_node {
	phases BS;
	power_12 100;
	name 70;
	parent 1594;
	nominal_voltage 120;
};

object overhead_line {
	phases ACBN;
	from 919;
	name 1164;
	to 217;
	length 222.044;
	configuration 1679;
};

object overhead_line {
	phases ACBN;
	from 217;
	name 1033;
	to 631;
	length 273.49;
	configuration 1679;
};

object transformer {
	phases AS;
	from 631;
	name 1375;
	to 1730;
	configuration 115;
};

object triplex_node {
	phases AS;
	power_12 100;
	name 978;
	parent 1730;
	nominal_voltage 120;
};

object overhead_line {
	phases CN;
	from 631;
	name 361;
	to 558;
	length 26.5061;
	configuration 427;
};

object fuse {
	phases CN;
	from 558;
	name 205;
	current_limit 9999.0 A;
	to 932;
};

object overhead_line {
	phases CN;
	from 932;
	name 925;
	to 395;
	length 80.8867;
	configuration 427;
};

object transformer {
	phases CS;
	from 395;
	name 226;
	to 1756;
	configuration 115;
};

object triplex_node {
	phases CS;
	power_12 1519.04;
	name 1328;
	parent 1756;
	nominal_voltage 120;
};

object overhead_line {
	phases CN;
	from 631;
	name 1758;
	to 170;
	length 28.1181;
	configuration 427;
};

object fuse {
	phases CN;
	from 170;
	name 849;
	current_limit 9999.0 A;
	to 789;
};

object overhead_line {
	phases CN;
	from 789;
	name 1004;
	to 1116;
	length 241.85;
	configuration 427;
};

object overhead_line {
	phases CN;
	from 1116;
	name 1608;
	to 774;
	length 320.096;
	configuration 427;
};

object overhead_line {
	phases CN;
	from 774;
	name 1740;
	to 1345;
	length 319.967;
	configuration 427;
};

object transformer {
	phases CS;
	from 1345;
	name 1749;
	to 247;
	configuration 115;
};

object triplex_node {
	phases CS;
	power_12 1655.3;
	name 173;
	parent 247;
	nominal_voltage 120;
};

object overhead_line {
	phases CN;
	from 1345;
	name 791;
	to 144;
	length 203.088;
	configuration 427;
};

object overhead_line {
	phases CN;
	from 144;
	name 929;
	to 256;
	length 158.947;
	configuration 427;
};

object transformer {
	phases CS;
	from 256;
	name 581;
	to 1417;
	configuration 115;
};

object triplex_node {
	phases CS;
	power_12 10133.7;
	name 1335;
	parent 1417;
	nominal_voltage 120;
};

object overhead_line {
	phases AN;
	from 631;
	name 1316;
	to 799;
	length 24.9997;
	configuration 1641;
};

object fuse {
	phases AN;
	from 799;
	name 172;
	current_limit 9999.0 A;
	to 682;
};

object overhead_line {
	phases AN;
	from 682;
	name 1456;
	to 1018;
	length 260.872;
	configuration 1641;
};

object transformer {
	phases AS;
	from 1018;
	name 436;
	to 882;
	configuration 115;
};

object triplex_node {
	phases AS;
	power_12 100;
	name 771;
	parent 882;
	nominal_voltage 120;
};

object overhead_line {
	phases AN;
	from 1018;
	name 1535;
	to 259;
	length 174.815;
	configuration 1641;
};

object transformer {
	phases AS;
	from 259;
	name 927;
	to 1402;
	configuration 115;
};

object triplex_node {
	phases AS;
	power_12 100;
	name 1603;
	parent 1402;
	nominal_voltage 120;
};

object triplex_node {
	phases AS;
	power_12 100;
	name 1509;
	parent 1402;
	nominal_voltage 120;
};

object overhead_line {
	phases AN;
	from 1018;
	name 747;
	to 1748;
	length 467.84;
	configuration 1641;
};

object transformer {
	phases AS;
	from 1748;
	name 1370;
	to 1617;
	configuration 115;
};

object triplex_node {
	phases AS;
	power_12 100;
	name 602;
	parent 1617;
	nominal_voltage 120;
};

object triplex_node {
	phases AS;
	power_12 100;
	name 252;
	parent 1617;
	nominal_voltage 120;
};

object overhead_line {
	phases AN;
	from 1748;
	name 588;
	to 1008;
	length 372.94;
	configuration 1641;
};

object transformer {
	phases AS;
	from 1008;
	name 184;
	to 375;
	configuration 115;
};

object triplex_node {
	phases AS;
	power_12 100;
	name 1493;
	parent 375;
	nominal_voltage 120;
};

object overhead_line {
	phases AN;
	from 1008;
	name 1154;
	to 185;
	length 288.845;
	configuration 1641;
};

object transformer {
	phases AS;
	from 185;
	name 591;
	to 1418;
	configuration 115;
};

object triplex_node {
	phases AS;
	power_12 100;
	name 1199;
	parent 1418;
	nominal_voltage 120;
};

object overhead_line {
	phases AN;
	from 1748;
	name 295;
	to 135;
	length 235.1;
	configuration 1641;
};

object overhead_line {
	phases AN;
	from 135;
	name 1392;
	to 1329;
	length 316.703;
	configuration 1641;
};

object transformer {
	phases AS;
	from 1329;
	name 370;
	to 124;
	configuration 115;
};

object triplex_node {
	phases AS;
	power_12 100;
	name 1161;
	parent 124;
	nominal_voltage 120;
};

object triplex_node {
	phases AS;
	power_12 100;
	name 1029;
	parent 124;
	nominal_voltage 120;
};

object overhead_line {
	phases AN;
	from 1329;
	name 423;
	to 1770;
	length 201.012;
	configuration 1641;
};

object transformer {
	phases AS;
	from 1770;
	name 276;
	to 1480;
	configuration 115;
};

object triplex_node {
	phases AS;
	power_12 100;
	name 656;
	parent 1480;
	nominal_voltage 120;
};

object overhead_line {
	phases AN;
	from 135;
	name 1732;
	to 1753;
	length 383.447;
	configuration 1641;
};

object transformer {
	phases AS;
	from 1753;
	name 1111;
	to 1664;
	configuration 115;
};

object triplex_node {
	phases AS;
	power_12 100;
	name 1001;
	parent 1664;
	nominal_voltage 120;
};

object overhead_line {
	phases AN;
	from 1753;
	name 1077;
	to 524;
	length 321.462;
	configuration 1641;
};

object transformer {
	phases AS;
	from 524;
	name 1217;
	to 1143;
	configuration 115;
};

object triplex_node {
	phases AS;
	power_12 100;
	name 116;
	parent 1143;
	nominal_voltage 120;
};

object triplex_node {
	phases AS;
	power_12 100;
	name 476;
	parent 1143;
	nominal_voltage 120;
};

object overhead_line {
	phases AN;
	from 524;
	name 101;
	to 300;
	length 211.036;
	configuration 1641;
};

object transformer {
	phases AS;
	from 300;
	name 236;
	to 1645;
	configuration 115;
};

object triplex_node {
	phases AS;
	power_12 100;
	name 841;
	parent 1645;
	nominal_voltage 120;
};

object overhead_line {
	phases AN;
	from 300;
	name 1144;
	to 1699;
	length 202.261;
	configuration 1641;
};

object transformer {
	phases AS;
	from 1699;
	name 804;
	to 1069;
	configuration 115;
};

object triplex_node {
	phases AS;
	power_12 100;
	name 989;
	parent 1069;
	nominal_voltage 120;
};

object triplex_node {
	phases AS;
	power_12 100;
	name 1593;
	parent 1069;
	nominal_voltage 120;
};

object overhead_line {
	phases AN;
	from 1699;
	name 749;
	to 1139;
	length 217.697;
	configuration 1641;
};

object transformer {
	phases AS;
	from 1139;
	name 829;
	to 910;
	configuration 115;
};

object triplex_node {
	phases AS;
	power_12 100;
	name 306;
	parent 910;
	nominal_voltage 120;
};

object triplex_node {
	phases AS;
	power_12 100;
	name 617;
	parent 910;
	nominal_voltage 120;
};

object overhead_line {
	phases AN;
	from 1699;
	name 229;
	to 284;
	length 198.705;
	configuration 1641;
};

object transformer {
	phases AS;
	from 284;
	name 1571;
	to 901;
	configuration 115;
};

object triplex_node {
	phases AS;
	power_12 100;
	name 707;
	parent 901;
	nominal_voltage 120;
};

object overhead_line {
	phases AN;
	from 300;
	name 1318;
	to 892;
	length 202.235;
	configuration 1641;
};

object transformer {
	phases AS;
	from 892;
	name 1463;
	to 246;
	configuration 115;
};

object triplex_node {
	phases AS;
	power_12 100;
	name 648;
	parent 246;
	nominal_voltage 120;
};

object overhead_line {
	phases AN;
	from 135;
	name 1405;
	to 139;
	length 141.214;
	configuration 1641;
};

object transformer {
	phases AS;
	from 139;
	name 785;
	to 482;
	configuration 115;
};

object triplex_node {
	phases AS;
	power_12 100;
	name 1737;
	parent 482;
	nominal_voltage 120;
};

object overhead_line {
	phases ACBN;
	from 631;
	name 365;
	to 130;
	length 335.444;
	configuration 1679;
};

object transformer {
	phases BS;
	from 130;
	name 227;
	to 1228;
	configuration 115;
};

object triplex_node {
	phases BS;
	power_12 100;
	name 1334;
	parent 1228;
	nominal_voltage 120;
};

object overhead_line {
	phases CN;
	from 130;
	name 1761;
	to 1110;
	length 26.6007;
	configuration 427;
};

object fuse {
	phases CN;
	from 1110;
	name 858;
	current_limit 9999.0 A;
	to 1010;
};

object overhead_line {
	phases CN;
	from 1010;
	name 456;
	to 1200;
	length 243.066;
	configuration 427;
};

object transformer {
	phases CS;
	from 1200;
	name 383;
	to 489;
	configuration 115;
};

object triplex_node {
	phases CS;
	power_12 4534.42;
	name 242;
	parent 489;
	nominal_voltage 120;
};

object overhead_line {
	phases CN;
	from 1200;
	name 856;
	to 1561;
	length 305.297;
	configuration 427;
};

object transformer {
	phases CS;
	from 1561;
	name 1273;
	to 1222;
	configuration 115;
};

object triplex_node {
	phases CS;
	power_12 3757.23;
	name 931;
	parent 1222;
	nominal_voltage 120;
};

object overhead_line {
	phases ACBN;
	from 130;
	name 1414;
	to 1337;
	length 386.822;
	configuration 1679;
};

object overhead_line {
	phases ACBN;
	from 1337;
	name 327;
	to 257;
	length 137.975;
	configuration 1679;
};

object transformer {
	phases BS;
	from 257;
	name 296;
	to 381;
	configuration 115;
};

object triplex_node {
	phases BS;
	power_12 100;
	name 392;
	parent 381;
	nominal_voltage 120;
};

object overhead_line {
	phases AN;
	from 257;
	name 1484;
	to 483;
	length 25.0001;
	configuration 1641;
};

object fuse {
	phases AN;
	from 483;
	name 875;
	current_limit 9999.0 A;
	to 600;
};

object overhead_line {
	phases AN;
	from 600;
	name 744;
	to 1216;
	length 118.283;
	configuration 1641;
};

object transformer {
	phases AS;
	from 1216;
	name 1079;
	to 1347;
	configuration 115;
};

object triplex_node {
	phases AS;
	power_12 100;
	name 959;
	parent 1347;
	nominal_voltage 120;
};

object overhead_line {
	phases AN;
	from 1216;
	name 338;
	to 1012;
	length 218.301;
	configuration 1641;
};

object overhead_line {
	phases AN;
	from 1012;
	name 1551;
	to 1177;
	length 286.217;
	configuration 1641;
};

object transformer {
	phases AS;
	from 1177;
	name 180;
	to 1518;
	configuration 115;
};

object triplex_node {
	phases AS;
	power_12 100;
	name 1762;
	parent 1518;
	nominal_voltage 120;
};

object overhead_line {
	phases AN;
	from 257;
	name 1145;
	to 178;
	length 428.982;
	configuration 275;
};

object transformer {
	phases AS;
	from 178;
	name 1106;
	to 1747;
	configuration 115;
};

object triplex_node {
	phases AS;
	power_12 100;
	name 1713;
	parent 1747;
	nominal_voltage 120;
};

object triplex_node {
	phases AS;
	power_12 100;
	name 861;
	parent 1747;
	nominal_voltage 120;
};

object overhead_line {
	phases ACBN;
	from 257;
	name 516;
	to 450;
	length 155.789;
	configuration 1679;
};

object underground_line {
	phases ACBN;
	from 450;
	name 1638;
	to 783;
	length 24.9999;
	configuration 866;
};

object fuse {
	phases ACB;
	from 783;
	name 534;
	current_limit 9999.0 A;
	to 1187;
};

object underground_line {
	phases ACB;
	from 1187;
	name 129;
	to 577;
	length 201.626;
	configuration 866;
};

object transformer {
	phases AS;
	from 577;
	name 1497;
	to 1395;
	configuration 115;
};

object triplex_node {
	phases AS;
	power_12 3072.58;
	name 842;
	parent 1395;
	nominal_voltage 120;
};

object overhead_line {
	phases ACBN;
	from 450;
	name 1486;
	to 1739;
	length 172.639;
	configuration 1679;
};

object transformer {
	phases BS;
	from 1739;
	name 425;
	to 143;
	configuration 115;
};

object triplex_node {
	phases BS;
	power_12 100;
	name 760;
	parent 143;
	nominal_voltage 120;
};

object triplex_node {
	phases BS;
	power_12 100;
	name 1162;
	parent 143;
	nominal_voltage 120;
};

object triplex_node {
	phases BS;
	power_12 100;
	name 552;
	parent 143;
	nominal_voltage 120;
};

object overhead_line {
	phases ACBN;
	from 1739;
	name 1447;
	to 761;
	length 561.815;
	configuration 1679;
};

object overhead_line {
	phases AN;
	from 761;
	name 629;
	to 1632;
	length 22.8798;
	configuration 275;
};

object fuse {
	phases AN;
	from 1632;
	name 1725;
	current_limit 9999.0 A;
	to 1741;
};

object overhead_line {
	phases AN;
	from 1741;
	name 640;
	to 1541;
	length 64.7094;
	configuration 275;
};

object line_configuration {
	name 275;
	spacing 1678;
	conductor_N 808;
	conductor_A 808;
	conductor_C 1094;
	conductor_B 1094;
};

object overhead_line {
	phases AN;
	from 1541;
	name 514;
	to 1515;
	length 186.866;
	configuration 275;
};

object transformer {
	phases AS;
	from 1515;
	name 693;
	to 1109;
	configuration 115;
};

object triplex_node {
	phases AS;
	power_12 100;
	name 1605;
	parent 1109;
	nominal_voltage 120;
};

object triplex_node {
	phases AS;
	power_12 100;
	name 457;
	parent 1109;
	nominal_voltage 120;
};

object overhead_line {
	phases ACBN;
	from 761;
	name 1067;
	to 766;
	length 169.689;
	configuration 1679;
};

object overhead_line {
	phases ACBN;
	from 766;
	name 73;
	to 1660;
	length 293.041;
	configuration 1679;
};

object overhead_line {
	phases ACBN;
	from 1660;
	name 596;
	to 563;
	length 421.542;
	configuration 1679;
};

object overhead_line {
	phases CN;
	from 563;
	name 1431;
	to 738;
	length 25;
	configuration 427;
};

object fuse {
	phases CN;
	from 738;
	name 342;
	current_limit 9999.0 A;
	to 120;
};

object overhead_line {
	phases CN;
	from 120;
	name 470;
	to 1705;
	length 235.932;
	configuration 427;
};

object transformer {
	phases CS;
	from 1705;
	name 435;
	to 336;
	configuration 115;
};

object triplex_node {
	phases CS;
	power_12 2697.44;
	name 1697;
	parent 336;
	nominal_voltage 120;
};

object overhead_line {
	phases CN;
	from 1705;
	name 1080;
	to 880;
	length 78.2066;
	configuration 427;
};

object transformer {
	phases CS;
	from 880;
	name 234;
	to 1296;
	configuration 115;
};

object triplex_node {
	phases CS;
	power_12 2172.58;
	name 1320;
	parent 1296;
	nominal_voltage 120;
};

object triplex_node {
	phases CS;
	power_12 787.278;
	name 973;
	parent 1296;
	nominal_voltage 120;
};

object overhead_line {
	phases CN;
	from 880;
	name 358;
	to 720;
	length 187.008;
	configuration 427;
};

object overhead_line {
	phases CN;
	from 720;
	name 202;
	to 1065;
	length 268.521;
	configuration 427;
};

object overhead_line {
	phases CN;
	from 1065;
	name 117;
	to 940;
	length 144.519;
	configuration 427;
};

object overhead_line {
	phases CN;
	from 940;
	name 148;
	to 323;
	length 159.822;
	configuration 427;
};

object overhead_line {
	phases CN;
	from 323;
	name 1242;
	to 1412;
	length 192.016;
	configuration 427;
};

object overhead_line {
	phases CN;
	from 1412;
	name 1021;
	to 1072;
	length 242.98;
	configuration 427;
};

object transformer {
	phases CS;
	from 1072;
	name 1633;
	to 1204;
	configuration 115;
};

object triplex_node {
	phases CS;
	power_12 2914.44;
	name 1250;
	parent 1204;
	nominal_voltage 120;
};

object overhead_line {
	phases CN;
	from 323;
	name 884;
	to 105;
	length 336;
	configuration 427;
};

object transformer {
	phases CS;
	from 105;
	name 498;
	to 444;
	configuration 115;
};

object triplex_node {
	phases CS;
	power_12 2540.99;
	name 1114;
	parent 444;
	nominal_voltage 120;
};

object overhead_line {
	phases CN;
	from 720;
	name 269;
	to 89;
	length 115.812;
	configuration 427;
};

object transformer {
	phases CS;
	from 89;
	name 1616;
	to 672;
	configuration 115;
};

object triplex_node {
	phases CS;
	power_12 4567.22;
	name 1236;
	parent 672;
	nominal_voltage 120;
};

object overhead_line {
	phases ACBN;
	from 563;
	name 138;
	to 1284;
	length 546.446;
	configuration 1679;
};

object transformer {
	phases BS;
	from 1284;
	name 569;
	to 1175;
	configuration 115;
};

object triplex_node {
	phases BS;
	power_12 100;
	name 917;
	parent 1175;
	nominal_voltage 120;
};

object overhead_line {
	phases ACBN;
	from 1284;
	name 1319;
	to 1293;
	length 131.068;
	configuration 1679;
};

object overhead_line {
	phases ACBN;
	from 1293;
	name 687;
	to 88;
	length 222.516;
	configuration 1679;
};

object switch {
	status CLOSED;
	phases ACBN;
	from 88;
	name 1538;
	to 79;
};

object switch {
	status CLOSED;
	phases ACBN;
	from 79;
	name 1427;
	to 837;
};

object overhead_line {
	phases ACBN;
	from 837;
	name 559;
	to 225;
	length 25.0002;
	configuration 1679;
};

object overhead_line {
	phases ACBN;
	from 225;
	name 1655;
	to 912;
	length 226.378;
	configuration 1679;
};

object transformer {
	phases AS;
	from 912;
	name 357;
	to 1255;
	configuration 115;
};

object triplex_node {
	phases AS;
	power_12 100;
	name 698;
	parent 1255;
	nominal_voltage 120;
};

object overhead_line {
	phases ACBN;
	from 912;
	name 754;
	to 1657;
	length 222.764;
	configuration 1679;
};

object overhead_line {
	phases ACBN;
	from 1657;
	name 1093;
	to 1047;
	length 489.892;
	configuration 1679;
};

object overhead_line {
	phases ACBN;
	from 1047;
	name 1495;
	to 1589;
	length 558.193;
	configuration 1679;
};

object overhead_line {
	phases ACBN;
	from 1589;
	name 887;
	to 237;
	length 76.3128;
	configuration 1679;
};

object overhead_line {
	phases ACBN;
	from 237;
	name 1473;
	to 1555;
	length 329.719;
	configuration 1679;
};

object transformer {
	phases BS;
	from 1555;
	name 69;
	to 1032;
	configuration 115;
};

object triplex_node {
	phases BS;
	power_12 100;
	name 970;
	parent 1032;
	nominal_voltage 120;
};

object triplex_node {
	phases BS;
	power_12 100;
	name 351;
	parent 1032;
	nominal_voltage 120;
};

object triplex_node {
	phases BS;
	power_12 100;
	name 980;
	parent 1032;
	nominal_voltage 120;
};

object overhead_line {
	phases ACBN;
	from 1555;
	name 844;
	to 628;
	length 311.671;
	configuration 1679;
};

object overhead_line {
	phases AN;
	from 628;
	name 1426;
	to 280;
	length 29.6986;
	configuration 1641;
};

object fuse {
	phases AN;
	from 280;
	name 337;
	current_limit 9999.0 A;
	to 1317;
};

object overhead_line {
	phases AN;
	from 1317;
	name 1623;
	to 213;
	length 99.3975;
	configuration 1641;
};

object transformer {
	phases AS;
	from 213;
	name 847;
	to 1165;
	configuration 115;
};

object triplex_node {
	phases AS;
	power_12 100;
	name 253;
	parent 1165;
	nominal_voltage 120;
};

object overhead_line {
	phases AN;
	from 213;
	name 868;
	to 1176;
	length 278.816;
	configuration 1641;
};

object overhead_line {
	phases AN;
	from 1176;
	name 469;
	to 575;
	length 354.071;
	configuration 1641;
};

object overhead_line {
	phases AN;
	from 575;
	name 122;
	to 1191;
	length 348.862;
	configuration 1641;
};

object overhead_line {
	phases AN;
	from 1191;
	name 1185;
	to 1174;
	length 238.633;
	configuration 1641;
};

object overhead_line {
	phases AN;
	from 1174;
	name 110;
	to 75;
	length 333.034;
	configuration 1641;
};

object transformer {
	phases AS;
	from 75;
	name 321;
	to 956;
	configuration 115;
};

object triplex_node {
	phases AS;
	power_12 100;
	name 1416;
	parent 956;
	nominal_voltage 120;
};

object overhead_line {
	phases AN;
	from 75;
	name 1285;
	to 1060;
	length 285.607;
	configuration 1641;
};

object overhead_line {
	phases AN;
	from 1060;
	name 1300;
	to 188;
	length 108.49;
	configuration 1641;
};

object transformer {
	phases AS;
	from 188;
	name 689;
	to 826;
	configuration 115;
};

object triplex_node {
	phases AS;
	power_12 100;
	name 544;
	parent 826;
	nominal_voltage 120;
};

object triplex_node {
	phases AS;
	power_12 100;
	name 458;
	parent 826;
	nominal_voltage 120;
};

object overhead_line {
	phases A;
	from 1060;
	name 481;
	to 438;
	length 159.789;
	configuration 1641;
};

object underground_line {
	phases A;
	from 438;
	name 1574;
	to 84;
	length 215.958;
	configuration 866;
};

object overhead_line {
	phases AN;
	from 1174;
	name 664;
	to 991;
	length 222.075;
	configuration 1641;
};

object transformer {
	phases AS;
	from 991;
	name 788;
	to 1595;
	configuration 115;
};

object triplex_node {
	phases AS;
	power_12 100;
	name 1398;
	parent 1595;
	nominal_voltage 120;
};

object overhead_line {
	phases AN;
	from 575;
	name 1534;
	to 495;
	length 252;
	configuration 1641;
};

object transformer {
	phases AS;
	from 495;
	name 1628;
	to 830;
	configuration 115;
};

object triplex_node {
	phases AS;
	power_12 100;
	name 1763;
	parent 830;
	nominal_voltage 120;
};

object overhead_line {
	phases ACBN;
	from 628;
	name 679;
	to 1659;
	length 351.049;
	configuration 1679;
};

object transformer {
	phases AS;
	from 1659;
	name 797;
	to 1063;
	configuration 115;
};

object triplex_node {
	phases AS;
	power_12 100;
	name 462;
	parent 1063;
	nominal_voltage 120;
};

object overhead_line {
	phases ACBN;
	from 1659;
	name 638;
	to 1466;
	length 78.1503;
	configuration 1679;
};

object overhead_line {
	phases AN;
	from 628;
	name 1738;
	to 99;
	length 29.7713;
	configuration 1641;
};

object fuse {
	phases AN;
	from 99;
	name 1119;
	current_limit 9999.0 A;
	to 1041;
};

object overhead_line {
	phases AN;
	from 1041;
	name 1528;
	to 1611;
	length 486.611;
	configuration 1641;
};

object line_configuration {
	name 1641;
	spacing 1678;
	conductor_N 430;
	conductor_A 430;
	conductor_C 1094;
	conductor_B 1094;
};

object overhead_line {
	phases AN;
	from 1611;
	name 158;
	to 713;
	length 346.911;
	configuration 1641;
};

object transformer {
	phases AS;
	from 713;
	name 567;
	to 1057;
	configuration 115;
};

object triplex_node {
	phases AS;
	power_12 100;
	name 1663;
	parent 1057;
	nominal_voltage 120;
};

object triplex_node {
	phases AS;
	power_12 100;
	name 818;
	parent 1057;
	nominal_voltage 120;
};

object overhead_line {
	phases AN;
	from 713;
	name 1194;
	to 734;
	length 375.825;
	configuration 275;
};

object transformer {
	phases AS;
	from 734;
	name 1313;
	to 403;
	configuration 115;
};

object triplex_node {
	phases AS;
	power_12 100;
	name 207;
	parent 403;
	nominal_voltage 120;
};

object overhead_line {
	phases AN;
	from 734;
	name 1081;
	to 519;
	length 341.47;
	configuration 275;
};

object transformer {
	phases AS;
	from 519;
	name 1173;
	to 1135;
	configuration 115;
};

object triplex_node {
	phases AS;
	power_12 100;
	name 341;
	parent 1135;
	nominal_voltage 120;
};

object overhead_line {
	phases AN;
	from 519;
	name 951;
	to 1458;
	length 343.023;
	configuration 275;
};

object overhead_line {
	phases AN;
	from 1458;
	name 568;
	to 1122;
	length 226.764;
	configuration 1641;
};

object transformer {
	phases AS;
	from 1122;
	name 190;
	to 1694;
	configuration 115;
};

object triplex_node {
	phases AS;
	power_12 100;
	name 1038;
	parent 1694;
	nominal_voltage 120;
};

object overhead_line {
	phases AN;
	from 713;
	name 1651;
	to 599;
	length 157.693;
	configuration 1641;
};

object transformer {
	phases AS;
	from 599;
	name 109;
	to 493;
	configuration 115;
};

object triplex_node {
	phases AS;
	power_12 100;
	name 98;
	parent 493;
	nominal_voltage 120;
};

object overhead_line {
	phases AN;
	from 713;
	name 1075;
	to 609;
	length 196.101;
	configuration 275;
};

object overhead_line {
	phases AN;
	from 609;
	name 1415;
	to 1765;
	length 243.492;
	configuration 275;
};

object transformer {
	phases AS;
	from 1765;
	name 1289;
	to 1148;
	configuration 115;
};

object triplex_node {
	phases AS;
	power_12 100;
	name 268;
	parent 1148;
	nominal_voltage 120;
};

object triplex_node {
	phases AS;
	power_12 100;
	name 750;
	parent 1148;
	nominal_voltage 120;
};

object overhead_line {
	phases AN;
	from 1765;
	name 515;
	to 1023;
	length 198.508;
	configuration 275;
};

object overhead_line {
	phases AN;
	from 1023;
	name 401;
	to 1367;
	length 293.785;
	configuration 1641;
};

object overhead_line {
	phases AN;
	from 1367;
	name 1475;
	to 1227;
	length 215.575;
	configuration 1641;
};

object transformer {
	phases AS;
	from 1227;
	name 786;
	to 614;
	configuration 115;
};

object triplex_node {
	phases AS;
	power_12 100;
	name 677;
	parent 614;
	nominal_voltage 120;
};

object triplex_node {
	phases AS;
	power_12 100;
	name 582;
	parent 614;
	nominal_voltage 120;
};

object overhead_line {
	phases AN;
	from 1227;
	name 1193;
	to 1752;
	length 216.201;
	configuration 1641;
};

object transformer {
	phases AS;
	from 1752;
	name 831;
	to 393;
	configuration 115;
};

object triplex_node {
	phases AS;
	power_12 100;
	name 1262;
	parent 393;
	nominal_voltage 120;
};

object overhead_line {
	phases AN;
	from 1023;
	name 1750;
	to 245;
	length 177.49;
	configuration 275;
};

object transformer {
	phases AS;
	from 245;
	name 666;
	to 1350;
	configuration 115;
};

object triplex_node {
	phases AS;
	power_12 100;
	name 634;
	parent 1350;
	nominal_voltage 120;
};

object overhead_line {
	phases AN;
	from 1765;
	name 714;
	to 1552;
	length 116.619;
	configuration 1641;
};

object overhead_line {
	phases AN;
	from 1552;
	name 410;
	to 466;
	length 245.206;
	configuration 1641;
};

object overhead_line {
	phases AN;
	from 466;
	name 1169;
	to 814;
	length 361.047;
	configuration 1641;
};

object overhead_line {
	phases AN;
	from 814;
	name 303;
	to 968;
	length 204.81;
	configuration 1641;
};

object transformer {
	phases AS;
	from 968;
	name 1233;
	to 140;
	configuration 115;
};

object triplex_node {
	phases AS;
	power_12 100;
	name 282;
	parent 140;
	nominal_voltage 120;
};

object overhead_line {
	phases AN;
	from 1611;
	name 632;
	to 1264;
	length 150.83;
	configuration 1641;
};

object transformer {
	phases AS;
	from 1264;
	name 1035;
	to 595;
	configuration 115;
};

object triplex_node {
	phases AS;
	power_12 100;
	name 428;
	parent 595;
	nominal_voltage 120;
};

object overhead_line {
	phases ACBN;
	from 237;
	name 1045;
	to 221;
	length 361.26;
	configuration 1679;
};

object overhead_line {
	phases AN;
	from 221;
	name 1408;
	to 1321;
	length 25.0002;
	configuration 1641;
};

object fuse {
	phases AN;
	from 1321;
	name 1502;
	current_limit 9999.0 A;
	to 212;
};

object overhead_line {
	phases AN;
	from 212;
	name 414;
	to 848;
	length 81.4961;
	configuration 1641;
};

object overhead_line {
	phases AN;
	from 848;
	name 1373;
	to 179;
	length 177.052;
	configuration 1641;
};

object transformer {
	phases AS;
	from 179;
	name 893;
	to 1413;
	configuration 115;
};

object triplex_node {
	phases AS;
	power_12 100;
	name 1386;
	parent 1413;
	nominal_voltage 120;
};

object overhead_line {
	phases ACBN;
	from 221;
	name 540;
	to 487;
	length 303.262;
	configuration 1679;
};

object overhead_line {
	phases ACBN;
	from 487;
	name 636;
	to 667;
	length 240.007;
	configuration 1679;
};

object transformer {
	phases BS;