clock {
	timezone PST+8PDT;
	starttime '2009-01-01 00:00:00';
	stoptime '2009-01-08 00:00:00';
};

#set profiler=1module assert;
module tape;
module powerflow {
	solver_method NR;
	default_maximum_voltage_error 1e-9;
};

object regulator {
	phases ABCN;
	from R4-25-00-1_node_231;
	name R4-25-00-1_reg_1;
	to R4-25-00-1_meter_2;
	configuration feeder_reg_cfg;
	groupid swingKids;
};

object recorder {
	interval 3600;
	name R4-25-00-1_reg_1recorder5;
	parent R4-25-00-1_reg_1;
	limit 144;
	file "R4-25.00-1_reg_output.csv";
	property tap_A,tap_B,tap_C,power_in_A.real,power_in_A.imag,power_in_B.real,power_in_B.imag,power_in_C.real,power_in_C.imag,power_in.real,power_in.imag;
};

object regulator_configuration {
	Control OUTPUT_VOLTAGE;
	raise_taps 16;
	name feeder_reg_cfg;
	band_center 14435.0;
	tap_pos_A 0;
	tap_pos_B 0;
	connect_type WYE_WYE;
	time_delay 30;
	regulation 0.10;
	lower_taps 16;
	tap_pos_C 0;
	band_width 120.3;
};

object fuse {
	status CLOSED;
	phases CN;
	from R4-25-00-1_node_45;
	name R4-25-00-1_fuse_1;
	current_limit 30;
	to R4-25-00-1_node_94;
};

object fuse {
	status CLOSED;
	phases CN;
	from R4-25-00-1_node_161;
	name R4-25-00-1_fuse_2;
	current_limit 30;
	to R4-25-00-1_node_96;
};

object fuse {
	status CLOSED;
	phases CN;
	from R4-25-00-1_node_162;
	name R4-25-00-1_fuse_3;
	current_limit 30;
	to R4-25-00-1_node_77;
};

object fuse {
	status CLOSED;
	phases CN;
	from R4-25-00-1_node_134;
	name R4-25-00-1_fuse_4;
	current_limit 40;
	to R4-25-00-1_node_78;
};

object fuse {
	status CLOSED;
	phases CN;
	from R4-25-00-1_node_134;
	name R4-25-00-1_fuse_5;
	current_limit 40;
	to R4-25-00-1_node_79;
};

object fuse {
	status CLOSED;
	phases CN;
	from R4-25-00-1_node_48;
	name R4-25-00-1_fuse_6;
	current_limit 40;
	to R4-25-00-1_node_80;
};

object fuse {
	status CLOSED;
	phases CN;
	from R4-25-00-1_node_53;
	name R4-25-00-1_fuse_7;
	current_limit 40;
	to R4-25-00-1_node_81;
};

object fuse {
	status CLOSED;
	phases CN;
	from R4-25-00-1_node_176;
	name R4-25-00-1_fuse_8;
	current_limit 40;
	to R4-25-00-1_node_82;
};

object fuse {
	status CLOSED;
	phases CN;
	from R4-25-00-1_node_49;
	name R4-25-00-1_fuse_9;
	current_limit 40;
	to R4-25-00-1_node_83;
};

object fuse {
	status CLOSED;
	phases CN;
	from R4-25-00-1_node_51;
	name R4-25-00-1_fuse_10;
	current_limit 40;
	to R4-25-00-1_node_84;
};

object fuse {
	status CLOSED;
	phases BN;
	from R4-25-00-1_node_23;
	name R4-25-00-1_fuse_11;
	current_limit 60;
	to R4-25-00-1_node_85;
};

object fuse {
	status CLOSED;
	phases CN;
	from R4-25-00-1_node_32;
	name R4-25-00-1_fuse_12;
	current_limit 60;
	to R4-25-00-1_node_86;
};

object fuse {
	status CLOSED;
	phases BN;
	from R4-25-00-1_node_156;
	name R4-25-00-1_fuse_13;
	current_limit 60;
	to R4-25-00-1_node_87;
};

object fuse {
	status CLOSED;
	phases AN;
	from R4-25-00-1_node_13;
	name R4-25-00-1_fuse_14;
	current_limit 60;
	to R4-25-00-1_node_102;
};

object fuse {
	status CLOSED;
	phases AN;
	from R4-25-00-1_node_13;
	name R4-25-00-1_fuse_15;
	current_limit 60;
	to R4-25-00-1_node_88;
};

object fuse {
	status CLOSED;
	phases BN;
	from R4-25-00-1_node_19;
	name R4-25-00-1_fuse_16;
	current_limit 60;
	to R4-25-00-1_node_89;
};

object fuse {
	status CLOSED;
	phases CN;
	from R4-25-00-1_node_151;
	name R4-25-00-1_fuse_17;
	current_limit 60;
	to R4-25-00-1_node_90;
};

object fuse {
	status CLOSED;
	phases AN;
	from R4-25-00-1_node_154;
	name R4-25-00-1_fuse_18;
	current_limit 60;
	to R4-25-00-1_node_91;
};

object fuse {
	status CLOSED;
	phases CN;
	from R4-25-00-1_node_15;
	name R4-25-00-1_fuse_19;
	current_limit 60;
	to R4-25-00-1_node_92;
};

object fuse {
	status CLOSED;
	phases CN;
	from R4-25-00-1_node_65;
	name R4-25-00-1_fuse_20;
	current_limit 40;
	to R4-25-00-1_node_93;
};

object fuse {
	status CLOSED;
	phases CN;
	from R4-25-00-1_node_38;
	name R4-25-00-1_fuse_21;
	current_limit 40;
	to R4-25-00-1_node_97;
};

object fuse {
	status CLOSED;
	phases CN;
	from R4-25-00-1_node_145;
	name R4-25-00-1_fuse_22;
	current_limit 30;
	to R4-25-00-1_node_98;
};

object fuse {
	status CLOSED;
	phases CN;
	from R4-25-00-1_node_50;
	name R4-25-00-1_fuse_23;
	current_limit 40;
	to R4-25-00-1_node_99;
};

object fuse {
	status CLOSED;
	phases CN;
	from R4-25-00-1_node_40;
	name R4-25-00-1_fuse_24;
	current_limit 30;
	to R4-25-00-1_node_100;
};

object fuse {
	status CLOSED;
	phases CN;
	from R4-25-00-1_node_190;
	name R4-25-00-1_fuse_25;
	current_limit 50;
	to R4-25-00-1_node_101;
};

object fuse {
	status CLOSED;
	phases CN;
	from R4-25-00-1_node_1;
	name R4-25-00-1_fuse_26;
	current_limit 80;
	to R4-25-00-1_node_95;
};

object fuse {
	status CLOSED;
	phases CN;
	from R4-25-00-1_node_46;
	name R4-25-00-1_fuse_27;
	current_limit 30;
	to R4-25-00-1_node_103;
};

object fuse {
	status CLOSED;
	phases CN;
	from R4-25-00-1_node_59;
	name R4-25-00-1_fuse_28;
	current_limit 30;
	to R4-25-00-1_node_76;
};

object line_configuration {
	conductor_N overhead_line_conductor_2;
	spacing line_spacing_8;
	name line_configuration_16;
	conductor_B overhead_line_conductor_2;
};

object line_configuration {
	conductor_N overhead_line_conductor_2;
	spacing line_spacing_9;
	name line_configuration_17;
	conductor_C overhead_line_conductor_2;
};

object line_configuration {
	name line_configuration_18;
	spacing line_spacing_10;
	conductor_N overhead_line_conductor_3;
	conductor_A overhead_line_conductor_3;
	conductor_C overhead_line_conductor_3;
	conductor_B overhead_line_conductor_3;
};

object line_configuration {
	conductor_N overhead_line_conductor_4;
	spacing line_spacing_8;
	name line_configuration_19;
	conductor_B overhead_line_conductor_4;
};

object line_configuration {
	spacing line_spacing_11;
	conductor_N overhead_line_conductor_2;
	conductor_A overhead_line_conductor_2;
	name line_configuration_20;
};

object line_configuration {
	conductor_N overhead_line_conductor_5;
	spacing line_spacing_9;
	name line_configuration_21;
	conductor_C overhead_line_conductor_5;
};

object line_configuration {
	conductor_N overhead_line_conductor_5;
	spacing line_spacing_9;
	name line_configuration_22;
	conductor_C overhead_line_conductor_5;
};

object line_configuration {
	name line_configuration_23;
	spacing line_spacing_12;
	conductor_N overhead_line_conductor_2;
	conductor_A overhead_line_conductor_2;
	conductor_C overhead_line_conductor_2;
};

object line_configuration {
	conductor_N underground_line_conductor_6;
	spacing line_spacing_13;
	name line_configuration_24;
	conductor_C underground_line_conductor_6;
};

object line_configuration {
	conductor_N underground_line_conductor_6;
	spacing line_spacing_9;
	name line_configuration_25;
	conductor_C underground_line_conductor_6;
};

object line_configuration {
	spacing line_spacing_14;
	conductor_N underground_line_conductor_6;
	conductor_A underground_line_conductor_6;
	name line_configuration_26;
};

object line_configuration {
	spacing line_spacing_11;
	conductor_N overhead_line_conductor_4;
	conductor_A overhead_line_conductor_4;
	name line_configuration_27;
};

object line_configuration {
	name line_configuration_28;
	spacing line_spacing_15;
	conductor_N overhead_line_conductor_3;
	conductor_A overhead_line_conductor_3;
	conductor_C overhead_line_conductor_3;
	conductor_B overhead_line_conductor_3;
};

object line_spacing {
	name line_spacing_8;
	distance_BN 48.0 in;
};

object line_spacing {
	distance_CN 48.0 in;
	name line_spacing_9;
};

object line_spacing {
	distance_BC 57.6 in;
	name line_spacing_10;
	distance_CN 48.0 in;
	distance_AN 48.0 in;
	distance_AB 57.6 in;
	distance_BN 48.0 in;
	distance_AC 57.6 in;
};

object line_spacing {
	distance_AN 48.0 in;
	name line_spacing_11;
};

object line_spacing {
	distance_CN 48.0 in;
	distance_AN 48.0 in;
	name line_spacing_12;
	distance_AC 51.6 in;
};

object line_spacing {
	distance_CN 0.0 in;
	name line_spacing_13;
};

object line_spacing {
	distance_AN 0.0 in;
	name line_spacing_14;
};

object line_spacing {
	distance_BC 48.0 in;
	name line_spacing_15;
	distance_CN 48.0 in;
	distance_AN 48.0 in;
	distance_AB 48.0 in;
	distance_BN 48.0 in;
	distance_AC 48.0 in;
};

object load {
	phases ACN;
	load_class C;
	name R4-25-00-1_load_1;
	parent R4-25-00-1_meter_1;
	voltage_C -7188.01+12450j;
	voltage_A 14376.02+0.0j;
	constant_power_C 5000+1000j;
	constant_power_A 5000+1000j;
	nominal_voltage 14376.02;
};

object meter {
	phases ACN;
	name R4-25-00-1_meter_1;
	voltage_C -7188.01+12450j;
	voltage_A 14376.02+0.0j;
	nominal_voltage 14376.02;
};

object meter {
	phases ABCN;
	name R4-25-00-1_meter_2;
	voltage_B -7188.01-12450j;
	voltage_C -7188.01+12450j;
	voltage_A 14376.02+0.0j;
	nominal_voltage 14376.02;
};

object node {
	voltage_C -7188.01+12450j;
	phases CN;
	nominal_voltage 14376.02;
	name R4-25-00-1_node_1;
};

object node {
	phases ABCN;
	name R4-25-00-1_node_2;
	voltage_B -7188.01-12450j;
	voltage_C -7188.01+12450j;
	voltage_A 14376.02+0.0j;
	nominal_voltage 14376.02;
};

object node {
	phases ABCN;
	name R4-25-00-1_node_3;
	voltage_B -7188.01-12450j;
	voltage_C -7188.01+12450j;
	voltage_A 14376.02+0.0j;
	nominal_voltage 14376.02;
};

object node {
	voltage_B -7188.01-12450j;
	phases BN;
	nominal_voltage 14376.02;
	name R4-25-00-1_node_4;
};

object node {
	voltage_B -7188.01-12450j;
	phases BN;
	nominal_voltage 14376.02;
	name R4-25-00-1_node_5;
};

object node {
	voltage_B -7188.01-12450j;
	phases BN;
	nominal_voltage 14376.02;
	name R4-25-00-1_node_6;
};

object node {
	voltage_B -7188.01-12450j;
	phases BN;
	nominal_voltage 14376.02;
	name R4-25-00-1_node_7;
};

object node {
	voltage_B -7188.01-12450j;
	phases BN;
	nominal_voltage 14376.02;
	name R4-25-00-1_node_8;
};

object node {
	voltage_B -7188.01-12450j;
	phases BN;
	nominal_voltage 14376.02;
	name R4-25-00-1_node_9;
};

object node {
	voltage_B -7188.01-12450j;
	phases BN;
	nominal_voltage 14376.02;
	name R4-25-00-1_node_10;
};

object node {
	phases ABCN;
	name R4-25-00-1_node_11;
	voltage_B -7188.01-12450j;
	voltage_C -7188.01+12450j;
	voltage_A 14376.02+0.0j;
	nominal_voltage 14376.02;
};

object node {
	phases ABCN;
	name R4-25-00-1_node_12;
	voltage_B -7188.01-12450j;
	voltage_C -7188.01+12450j;
	voltage_A 14376.02+0.0j;
	nominal_voltage 14376.02;
};

object node {
	phases ABCN;
	name R4-25-00-1_node_13;
	voltage_B -7188.01-12450j;
	voltage_C -7188.01+12450j;
	voltage_A 14376.02+0.0j;
	nominal_voltage 14376.02;
};

object node {
	voltage_C -7188.01+12450j;
	phases CN;
	nominal_voltage 14376.02;
	name R4-25-00-1_node_14;
};

object node {
	phases ABCN;
	name R4-25-00-1_node_15;
	voltage_B -7188.01-12450j;
	voltage_C -7188.01+12450j;
	voltage_A 14376.02+0.0j;
	nominal_voltage 14376.02;
};

object node {
	voltage_C -7188.01+12450j;
	phases CN;
	nominal_voltage 14376.02;
	name R4-25-00-1_node_16;
};

object node {
	phases ABCN;
	name R4-25-00-1_node_17;
	voltage_B -7188.01-12450j;
	voltage_C -7188.01+12450j;
	voltage_A 14376.02+0.0j;
	nominal_voltage 14376.02;
};

object node {
	phases ABCN;
	name R4-25-00-1_node_18;
	voltage_B -7188.01-12450j;
	voltage_C -7188.01+12450j;
	voltage_A 14376.02+0.0j;
	nominal_voltage 14376.02;
};

object node {
	phases ABCN;
	name R4-25-00-1_node_19;
	voltage_B -7188.01-12450j;
	voltage_C -7188.01+12450j;
	voltage_A 14376.02+0.0j;
	nominal_voltage 14376.02;
};

object node {
	phases ABCN;
	name R4-25-00-1_node_20;
	voltage_B -7188.01-12450j;
	voltage_C -7188.01+12450j;
	voltage_A 14376.02+0.0j;
	nominal_voltage 14376.02;
};

object node {
	voltage_B -7188.01-12450j;
	phases BN;
	nominal_voltage 14376.02;
	name R4-25-00-1_node_21;
};

object node {
	phases ABCN;
	name R4-25-00-1_node_22;
	voltage_B -7188.01-12450j;
	voltage_C -7188.01+12450j;
	voltage_A 14376.02+0.0j;
	nominal_voltage 14376.02;
};

object node {
	phases ABCN;
	name R4-25-00-1_node_23;
	voltage_B -7188.01-12450j;
	voltage_C -7188.01+12450j;
	voltage_A 14376.02+0.0j;
	nominal_voltage 14376.02;
};

object node {
	phases ABCN;
	name R4-25-00-1_node_24;
	voltage_B -7188.01-12450j;
	voltage_C -7188.01+12450j;
	voltage_A 14376.02+0.0j;
	nominal_voltage 14376.02;
};

object node {
	voltage_C -7188.01+12450j;
	phases CN;
	nominal_voltage 14376.02;
	name R4-25-00-1_node_25;
};

object node {
	phases ABCN;
	name R4-25-00-1_node_26;
	voltage_B -7188.01-12450j;
	voltage_C -7188.01+12450j;
	voltage_A 14376.02+0.0j;
	nominal_voltage 14376.02;
};

object node {
	voltage_C -7188.01+12450j;
	phases CN;
	nominal_voltage 14376.02;
	name R4-25-00-1_node_27;
};

object node {
	voltage_C -7188.01+12450j;
	phases CN;
	nominal_voltage 14376.02;
	name R4-25-00-1_node_28;
};

object node {
	phases AN;
	nominal_voltage 14376.02;
	name R4-25-00-1_node_29;
	voltage_A 14376.02+0.0j;
};

object node {
	phases ABCN;
	name R4-25-00-1_node_30;
	voltage_B -7188.01-12450j;
	voltage_C -7188.01+12450j;
	voltage_A 14376.02+0.0j;
	nominal_voltage 14376.02;
};

object node {
	phases AN;
	nominal_voltage 14376.02;
	name R4-25-00-1_node_31;
	voltage_A 14376.02+0.0j;
};

object node {
	phases ABCN;
	name R4-25-00-1_node_32;
	voltage_B -7188.01-12450j;
	voltage_C -7188.01+12450j;
	voltage_A 14376.02+0.0j;
	nominal_voltage 14376.02;
};

object node {
	voltage_C -7188.01+12450j;
	phases CN;
	nominal_voltage 14376.02;
	name R4-25-00-1_node_33;
};

object node {
	voltage_C -7188.01+12450j;
	phases CN;
	nominal_voltage 14376.02;
	name R4-25-00-1_node_34;
};

object node {
	voltage_C -7188.01+12450j;
	phases CN;
	nominal_voltage 14376.02;
	name R4-25-00-1_node_35;
};

object node {
	voltage_C -7188.01+12450j;
	phases CN;
	nominal_voltage 14376.02;
	name R4-25-00-1_node_36;
};

object node {
	voltage_C -7188.01+12450j;
	phases CN;
	nominal_voltage 14376.02;
	name R4-25-00-1_node_37;
};

object node {
	voltage_C -7188.01+12450j;
	phases CN;
	nominal_voltage 14376.02;
	name R4-25-00-1_node_38;
};

object node {
	voltage_C -7188.01+12450j;
	phases CN;
	nominal_voltage 14376.02;
	name R4-25-00-1_node_39;
};

object node {
	voltage_C -7188.01+12450j;
	phases CN;
	nominal_voltage 14376.02;
	name R4-25-00-1_node_40;
};

object node {
	voltage_C -7188.01+12450j;
	phases CN;
	nominal_voltage 14376.02;
	name R4-25-00-1_node_41;
};

object node {
	voltage_C -7188.01+12450j;
	phases CN;
	nominal_voltage 14376.02;
	name R4-25-00-1_node_42;
};

object node {
	voltage_C -7188.01+12450j;
	phases CN;
	nominal_voltage 14376.02;
	name R4-25-00-1_node_43;
};

object node {
	voltage_C -7188.01+12450j;
	phases CN;
	nominal_voltage 14376.02;
	name R4-25-00-1_node_44;
};

object node {
	voltage_C -7188.01+12450j;
	phases CN;
	nominal_voltage 14376.02;
	name R4-25-00-1_node_45;
};

object node {
	voltage_C -7188.01+12450j;
	phases CN;
	nominal_voltage 14376.02;
	name R4-25-00-1_node_46;
};

object node {
	voltage_C -7188.01+12450j;
	phases CN;
	nominal_voltage 14376.02;
	name R4-25-00-1_node_47;
};

object node {
	voltage_C -7188.01+12450j;
	phases CN;
	nominal_voltage 14376.02;
	name R4-25-00-1_node_48;
};

object node {
	voltage_C -7188.01+12450j;
	phases CN;
	nominal_voltage 14376.02;
	name R4-25-00-1_node_49;
};

object node {
	voltage_C -7188.01+12450j;
	phases CN;
	nominal_voltage 14376.02;
	name R4-25-00-1_node_50;
};

object node {
	voltage_C -7188.01+12450j;
	phases CN;
	nominal_voltage 14376.02;
	name R4-25-00-1_node_51;
};

object node {
	voltage_C -7188.01+12450j;
	phases CN;
	nominal_voltage 14376.02;
	name R4-25-00-1_node_52;
};

object node {
	voltage_C -7188.01+12450j;
	phases CN;
	nominal_voltage 14376.02;
	name R4-25-00-1_node_53;
};

object node {
	voltage_C -7188.01+12450j;
	phases CN;
	nominal_voltage 14376.02;
	name R4-25-00-1_node_54;
};

object node {
	voltage_C -7188.01+12450j;
	phases CN;
	nominal_voltage 14376.02;
	name R4-25-00-1_node_55;
};

object node {
	voltage_C -7188.01+12450j;
	phases CN;
	nominal_voltage 14376.02;
	name R4-25-00-1_node_56;
};

object node {
	voltage_C -7188.01+12450j;
	phases CN;
	nominal_voltage 14376.02;
	name R4-25-00-1_node_57;
};

object node {
	voltage_C -7188.01+12450j;
	phases CN;
	nominal_voltage 14376.02;
	name R4-25-00-1_node_58;
};

object node {
	voltage_C -7188.01+12450j;
	phases CN;
	nominal_voltage 14376.02;
	name R4-25-00-1_node_59;
};

object node {
	voltage_C -7188.01+12450j;
	phases CN;
	nominal_voltage 14376.02;
	name R4-25-00-1_node_60;
};

object node {
	voltage_C -7188.01+12450j;
	phases CN;
	nominal_voltage 14376.02;
	name R4-25-00-1_node_61;
};

object node {
	voltage_C -7188.01+12450j;
	phases CN;
	nominal_voltage 14376.02;
	name R4-25-00-1_node_62;
};

object node {
	voltage_C -7188.01+12450j;
	phases CN;
	nominal_voltage 14376.02;
	name R4-25-00-1_node_63;
};

object node {
	voltage_C -7188.01+12450j;
	phases CN;
	nominal_voltage 14376.02;
	name R4-25-00-1_node_64;
};

object node {
	voltage_C -7188.01+12450j;
	phases CN;
	nominal_voltage 14376.02;
	name R4-25-00-1_node_65;
};

object node {
	voltage_C -7188.01+12450j;
	phases CN;
	nominal_voltage 14376.02;
	name R4-25-00-1_node_66;
};

object node {
	voltage_C -7188.01+12450j;
	phases CN;
	nominal_voltage 14376.02;
	name R4-25-00-1_node_67;
};

object node {
	voltage_C -7188.01+12450j;
	phases CN;
	nominal_voltage 14376.02;
	name R4-25-00-1_node_68;
};

object node {
	voltage_C -7188.01+12450j;
	phases CN;
	nominal_voltage 14376.02;
	name R4-25-00-1_node_69;
};

object node {
	voltage_C -7188.01+12450j;
	phases CN;
	nominal_voltage 14376.02;
	name R4-25-00-1_node_70;
};

object node {
	voltage_C -7188.01+12450j;
	phases CN;
	nominal_voltage 14376.02;
	name R4-25-00-1_node_71;
};

object node {
	phases ABCN;
	name R4-25-00-1_node_72;
	voltage_B -7188.01-12450j;
	voltage_C -7188.01+12450j;
	voltage_A 14376.02+0.0j;
	nominal_voltage 14376.02;
};

object node {
	phases ABCN;
	name R4-25-00-1_node_73;
	voltage_B -7188.01-12450j;
	voltage_C -7188.01+12450j;
	voltage_A 14376.02+0.0j;
	nominal_voltage 14376.02;
};

object node {
	phases ABCN;
	name R4-25-00-1_node_74;
	voltage_B -7188.01-12450j;
	voltage_C -7188.01+12450j;
	voltage_A 14376.02+0.0j;
	nominal_voltage 14376.02;
};

object node {
	phases ABCN;
	name R4-25-00-1_node_75;
	voltage_B -7188.01-12450j;
	voltage_C -7188.01+12450j;
	voltage_A 14376.02+0.0j;
	nominal_voltage 14376.02;
};

object node {
	voltage_C -7188.01+12450j;
	phases CN;
	nominal_voltage 14376.02;
	name R4-25-00-1_node_76;
};

object node {
	voltage_C -7188.01+12450j;
	phases CN;
	nominal_voltage 14376.02;
	name R4-25-00-1_node_77;
};

object node {
	voltage_C -7188.01+12450j;
	phases CN;
	nominal_voltage 14376.02;
	name R4-25-00-1_node_78;
};

object node {
	voltage_C -7188.01+12450j;
	phases CN;
	nominal_voltage 14376.02;
	name R4-25-00-1_node_79;
};

object node {
	voltage_C -7188.01+12450j;
	phases CN;
	nominal_voltage 14376.02;
	name R4-25-00-1_node_80;
};

object node {
	voltage_C -7188.01+12450j;
	phases CN;
	nominal_voltage 14376.02;
	name R4-25-00-1_node_81;
};

object node {
	voltage_C -7188.01+12450j;
	phases CN;
	nominal_voltage 14376.02;
	name R4-25-00-1_node_82;
};

object node {
	voltage_C -7188.01+12450j;
	phases CN;
	nominal_voltage 14376.02;
	name R4-25-00-1_node_83;
};

object node {
	voltage_C -7188.01+12450j;
	phases CN;
	nominal_voltage 14376.02;
	name R4-25-00-1_node_84;
};

object node {
	voltage_B -7188.01-12450j;
	phases BN;
	nominal_voltage 14376.02;
	name R4-25-00-1_node_85;
};

object node {
	voltage_C -7188.01+12450j;
	phases CN;
	nominal_voltage 14376.02;
	name R4-25-00-1_node_86;
};

object node {
	voltage_B -7188.01-12450j;
	phases BN;
	nominal_voltage 14376.02;
	name R4-25-00-1_node_87;
};

object node {
	phases AN;
	nominal_voltage 14376.02;
	name R4-25-00-1_node_88;
	voltage_A 14376.02+0.0j;
};

object node {
	voltage_B -7188.01-12450j;
	phases BN;
	nominal_voltage 14376.02;
	name R4-25-00-1_node_89;
};

object node {
	voltage_C -7188.01+12450j;
	phases CN;
	nominal_voltage 14376.02;
	name R4-25-00-1_node_90;
};

object node {
	phases AN;
	nominal_voltage 14376.02;
	name R4-25-00-1_node_91;
	voltage_A 14376.02+0.0j;
};

object node {
	voltage_C -7188.01+12450j;
	phases CN;
	nominal_voltage 14376.02;
	name R4-25-00-1_node_92;
};

object node {
	voltage_C -7188.01+12450j;
	phases CN;
	nominal_voltage 14376.02;
	name R4-25-00-1_node_93;
};

object node {
	voltage_C -7188.01+12450j;
	phases CN;
	nominal_voltage 14376.02;
	name R4-25-00-1_node_94;
};

object node {
	voltage_C -7188.01+12450j;
	phases CN;
	nominal_voltage 14376.02;
	name R4-25-00-1_node_95;
};

object node {
	voltage_C -7188.01+12450j;
	phases CN;
	nominal_voltage 14376.02;
	name R4-25-00-1_node_96;
};

object node {
	voltage_C -7188.01+12450j;
	phases CN;
	nominal_voltage 14376.02;
	name R4-25-00-1_node_97;
};

object node {
	voltage_C -7188.01+12450j;
	phases CN;
	nominal_voltage 14376.02;
	name R4-25-00-1_node_98;
};

object node {
	voltage_C -7188.01+12450j;
	phases CN;
	nominal_voltage 14376.02;
	name R4-25-00-1_node_99;
};

object node {
	voltage_C -7188.01+12450j;
	phases CN;
	nominal_voltage 14376.02;
	name R4-25-00-1_node_100;
};

object node {
	voltage_C -7188.01+12450j;
	phases CN;
	nominal_voltage 14376.02;
	name R4-25-00-1_node_101;
};

object node {
	phases AN;
	nominal_voltage 14376.02;
	name R4-25-00-1_node_102;
	voltage_A 14376.02+0.0j;
};

object node {
	voltage_C -7188.01+12450j;
	phases CN;
	nominal_voltage 14376.02;
	name R4-25-00-1_node_103;
};

object node {
	voltage_C -7188.01+12450j;
	phases CN;
	nominal_voltage 14376.02;
	name R4-25-00-1_node_104;
};

object node {
	voltage_C -7188.01+12450j;
	phases CN;
	nominal_voltage 14376.02;
	name R4-25-00-1_node_105;
};

object node {
	voltage_C -7188.01+12450j;
	phases CN;
	nominal_voltage 14376.02;
	name R4-25-00-1_node_106;
};

object node {
	voltage_B -7188.01-12450j;
	phases BN;
	nominal_voltage 14376.02;
	name R4-25-00-1_node_107;
};

object node {
	voltage_B -7188.01-12450j;
	phases BN;
	nominal_voltage 14376.02;
	name R4-25-00-1_node_108;
};

object node {
	voltage_C -7188.01+12450j;
	phases CN;
	nominal_voltage 14376.02;
	name R4-25-00-1_node_109;
};

object node {
	voltage_B -7188.01-12450j;
	phases BN;
	nominal_voltage 14376.02;
	name R4-25-00-1_node_110;
};

object node {
	phases AN;
	nominal_voltage 14376.02;
	name R4-25-00-1_node_111;
	voltage_A 14376.02+0.0j;
};

object node {
	voltage_B -7188.01-12450j;
	phases BN;
	nominal_voltage 14376.02;
	name R4-25-00-1_node_112;
};

object node {
	voltage_B -7188.01-12450j;
	phases BN;
	nominal_voltage 14376.02;
	name R4-25-00-1_node_113;
};

object node {
	voltage_B -7188.01-12450j;
	phases BN;
	nominal_voltage 14376.02;
	name R4-25-00-1_node_114;
};

object node {
	voltage_B -7188.01-12450j;
	phases BN;
	nominal_voltage 14376.02;
	name R4-25-00-1_node_115;
};

object node {
	voltage_B -7188.01-12450j;
	phases BN;
	nominal_voltage 14376.02;
	name R4-25-00-1_node_116;
};

object node {
	voltage_B -7188.01-12450j;
	phases BN;
	nominal_voltage 14376.02;
	name R4-25-00-1_node_117;
};

object node {
	voltage_B -7188.01-12450j;
	phases BN;
	nominal_voltage 14376.02;
	name R4-25-00-1_node_118;
};

object node {
	voltage_B -7188.01-12450j;
	phases BN;
	nominal_voltage 14376.02;
	name R4-25-00-1_node_119;
};

object node {
	voltage_B -7188.01-12450j;
	phases BN;
	nominal_voltage 14376.02;
	name R4-25-00-1_node_120;
};

object node {
	voltage_B -7188.01-12450j;
	phases BN;
	nominal_voltage 14376.02;
	name R4-25-00-1_node_121;
};

object node {
	voltage_B -7188.01-12450j;
	phases BN;
	nominal_voltage 14376.02;
	name R4-25-00-1_node_122;
};

object node {
	voltage_B -7188.01-12450j;
	phases BN;
	nominal_voltage 14376.02;
	name R4-25-00-1_node_123;
};

object node {
	voltage_B -7188.01-12450j;
	phases BN;
	nominal_voltage 14376.02;
	name R4-25-00-1_node_124;
};

object node {
	voltage_B -7188.01-12450j;
	phases BN;
	nominal_voltage 14376.02;
	name R4-25-00-1_node_125;
};

object node {
	phases AN;
	nominal_voltage 14376.02;
	name R4-25-00-1_node_126;
	voltage_A 14376.02+0.0j;
};

object node {
	phases ABCN;
	name R4-25-00-1_node_127;
	voltage_B -7188.01-12450j;
	voltage_C -7188.01+12450j;
	voltage_A 14376.02+0.0j;
	nominal_voltage 14376.02;
};

object node {
	voltage_B -7188.01-12450j;
	phases BN;
	nominal_voltage 14376.02;
	name R4-25-00-1_node_128;
};

object node {
	voltage_B -7188.01-12450j;
	phases BN;
	nominal_voltage 14376.02;
	name R4-25-00-1_node_129;
};

object node {
	voltage_B -7188.01-12450j;
	phases BN;
	nominal_voltage 14376.02;
	name R4-25-00-1_node_130;
};

object node {
	voltage_B -7188.01-12450j;
	phases BN;
	nominal_voltage 14376.02;
	name R4-25-00-1_node_131;
};

object node {
	voltage_C -7188.01+12450j;
	phases CN;
	nominal_voltage 14376.02;
	name R4-25-00-1_node_132;
};

object node {
	voltage_C -7188.01+12450j;
	phases CN;
	nominal_voltage 14376.02;
	name R4-25-00-1_node_133;
};

object node {
	voltage_C -7188.01+12450j;
	phases CN;
	nominal_voltage 14376.02;
	name R4-25-00-1_node_134;
};

object node {
	voltage_C -7188.01+12450j;
	phases CN;
	nominal_voltage 14376.02;
	name R4-25-00-1_node_135;
};

object node {
	voltage_C -7188.01+12450j;
	phases CN;
	nominal_voltage 14376.02;
	name R4-25-00-1_node_136;
};

object node {
	voltage_C -7188.01+12450j;
	phases CN;
	nominal_voltage 14376.02;
	name R4-25-00-1_node_137;
};

object node {
	voltage_C -7188.01+12450j;
	phases CN;
	nominal_voltage 14376.02;
	name R4-25-00-1_node_138;
};

object node {
	voltage_C -7188.01+12450j;
	phases CN;
	nominal_voltage 14376.02;
	name R4-25-00-1_node_139;
};

object node {
	voltage_C -7188.01+12450j;
	phases CN;
	nominal_voltage 14376.02;
	name R4-25-00-1_node_140;
};

object node {
	voltage_C -7188.01+12450j;
	phases CN;
	nominal_voltage 14376.02;
	name R4-25-00-1_node_141;
};

object node {
	voltage_C -7188.01+12450j;
	phases CN;
	nominal_voltage 14376.02;
	name R4-25-00-1_node_142;
};

object node {
	voltage_C -7188.01+12450j;
	phases CN;
	nominal_voltage 14376.02;
	name R4-25-00-1_node_143;
};

object node {
	voltage_C -7188.01+12450j;
	phases CN;
	nominal_voltage 14376.02;
	name R4-25-00-1_node_144;
};

object node {
	voltage_C -7188.01+12450j;
	phases CN;
	nominal_voltage 14376.02;
	name R4-25-00-1_node_145;
};

object node {
	voltage_C -7188.01+12450j;
	phases CN;
	nominal_voltage 14376.02;
	name R4-25-00-1_node_146;
};

object node {
	voltage_C -7188.01+12450j;
	phases CN;
	nominal_voltage 14376.02;
	name R4-25-00-1_node_147;
};

object node {
	voltage_C -7188.01+12450j;
	phases CN;
	nominal_voltage 14376.02;
	name R4-25-00-1_node_148;
};

object node {
	voltage_C -7188.01+12450j;
	phases CN;
	nominal_voltage 14376.02;
	name R4-25-00-1_node_149;
};

object node {
	voltage_C -7188.01+12450j;
	phases CN;
	nominal_voltage 14376.02;
	name R4-25-00-1_node_150;
};

object node {
	phases ACN;
	name R4-25-00-1_node_151;
	voltage_C -7188.01+12450j;
	voltage_A 14376.02+0.0j;
	nominal_voltage 14376.02;
};

object node {
	voltage_B -7188.01-12450j;
	phases BN;
	nominal_voltage 14376.02;
	name R4-25-00-1_node_152;
};

object node {
	phases AN;
	nominal_voltage 14376.02;
	name R4-25-00-1_node_153;
	voltage_A 14376.02+0.0j;
};

object node {
	phases ABCN;
	name R4-25-00-1_node_154;
	voltage_B -7188.01-12450j;
	voltage_C -7188.01+12450j;
	voltage_A 14376.02+0.0j;
	nominal_voltage 14376.02;
};

object node {
	voltage_C -7188.01+12450j;
	phases CN;
	nominal_voltage 14376.02;
	name R4-25-00-1_node_155;
};

object node {
	phases ABCN;
	name R4-25-00-1_node_156;
	voltage_B -7188.01-12450j;
	voltage_C -7188.01+12450j;
	voltage_A 14376.02+0.0j;
	nominal_voltage 14376.02;
};

object node {
	phases AN;
	nominal_voltage 14376.02;
	name R4-25-00-1_node_157;
	voltage_A 14376.02+0.0j;
};

object node {
	voltage_C -7188.01+12450j;
	phases CN;
	nominal_voltage 14376.02;
	name R4-25-00-1_node_158;
};

object node {
	voltage_C -7188.01+12450j;
	phases CN;
	nominal_voltage 14376.02;
	name R4-25-00-1_node_159;
};

object node {
	voltage_C -7188.01+12450j;
	phases CN;
	nominal_voltage 14376.02;
	name R4-25-00-1_node_160;
};

object node {
	voltage_C -7188.01+12450j;
	phases CN;
	nominal_voltage 14376.02;
	name R4-25-00-1_node_161;
};

object node {
	voltage_C -7188.01+12450j;
	phases CN;
	nominal_voltage 14376.02;
	name R4-25-00-1_node_162;
};

object node {
	voltage_C -7188.01+12450j;
	phases CN;
	nominal_voltage 14376.02;
	name R4-25-00-1_node_163;
};

object node {
	voltage_C -7188.01+12450j;
	phases CN;
	nominal_voltage 14376.02;
	name R4-25-00-1_node_164;
};

object node {
	voltage_C -7188.01+12450j;
	phases CN;
	nominal_voltage 14376.02;
	name R4-25-00-1_node_165;
};

object node {
	voltage_C -7188.01+12450j;
	phases CN;
	nominal_voltage 14376.02;
	name R4-25-00-1_node_166;
};

object node {
	voltage_C -7188.01+12450j;
	phases CN;
	nominal_voltage 14376.02;
	name R4-25-00-1_node_167;
};

object node {
	voltage_C -7188.01+12450j;
	phases CN;
	nominal_voltage 14376.02;
	name R4-25-00-1_node_168;
};

object node {
	voltage_C -7188.01+12450j;
	phases CN;
	nominal_voltage 14376.02;
	name R4-25-00-1_node_169;
};

object node {
	voltage_C -7188.01+12450j;
	phases CN;
	nominal_voltage 14376.02;
	name R4-25-00-1_node_170;
};

object node {
	voltage_C -7188.01+12450j;
	phases CN;
	nominal_voltage 14376.02;
	name R4-25-00-1_node_171;
};

object node {
	voltage_C -7188.01+12450j;
	phases CN;
	nominal_voltage 14376.02;
	name R4-25-00-1_node_172;
};

object node {
	voltage_C -7188.01+12450j;
	phases CN;
	nominal_voltage 14376.02;
	name R4-25-00-1_node_173;
};

object node {
	voltage_C -7188.01+12450j;
	phases CN;
	nominal_voltage 14376.02;
	name R4-25-00-1_node_174;
};

object node {
	voltage_C -7188.01+12450j;
	phases CN;
	nominal_voltage 14376.02;
	name R4-25-00-1_node_175;
};

object node {
	voltage_C -7188.01+12450j;
	phases CN;
	nominal_voltage 14376.02;
	name R4-25-00-1_node_176;
};

object node {
	voltage_C -7188.01+12450j;
	phases CN;
	nominal_voltage 14376.02;
	name R4-25-00-1_node_177;
};

object node {
	voltage_B -7188.01-12450j;
	phases BN;
	nominal_voltage 14376.02;
	name R4-25-00-1_node_178;
};

object node {
	voltage_C -7188.01+12450j;
	phases CN;
	nominal_voltage 14376.02;
	name R4-25-00-1_node_179;
};

object node {
	voltage_C -7188.01+12450j;
	phases CN;
	nominal_voltage 14376.02;
	name R4-25-00-1_node_180;
};
