clock {
	timezone PST+8PDT;
	starttime '2000-01-01 00:00:00';
	stoptime '2000-01-02 00:00:00';
};

#include "schedules.glm";
#set minimum_timestep=60;
#set profiler=1;
#set relax_naming_rules=1;
module generators;
module tape;
module climate;
module residential {
	implicit_enduses NONE;
};

module powerflow {
	solver_method NR;
	NR_iteration_limit 50;
};

object climate {
	name Climate;
	interpolate QUADRATIC;
	tmyfile climate.tmy2;
};

object node {
	phases ABCN;
	name BURLINGTON;
	bustype SWING;
	longitude 249.241975273;
	nominal_voltage 7200.0;
	latitude 1186.14884667;
};

object overhead_line {
	phases ACBN;
	from BURLINGTON;
	name 21003;
	longitude 248.438630691;
	to node2101121003;
	length 20.6237;
	latitude 1187.62190279;
	configuration 20531line_configuration98301;
};

object overhead_line {
	phases ACBN;
	from node2101121003;
	name 21011;
	longitude 247.95586711;
	to node6830421011;
	length 13.0755;
	latitude 1188.56931748;
	configuration 20531line_configuration98301;
};

object overhead_line {
	phases ACBN;
	from node6830421011;
	name 68304;
	longitude 246.830576009;
	to node6830568304;
	length 14.8233;
	latitude 1188.09743213;
	configuration 20531line_configuration98301;
};

object overhead_line {
	phases ACBN;
	from node6830421011;
	name 68302;
	longitude 247.347945787;
	to node6830368302;
	length 10;
	latitude 1188.85243282;
	configuration 20531line_configuration98301;
};

object overhead_line {
	phases ACBN;
	from node6830421011;
	name 68300;
	longitude 247.9786675;
	to node6830168300;
	length 10;
	latitude 1189.25127842;
	configuration 20531line_configuration98301;
};

object overhead_line {
	phases ACBN;
	from node6830421011;
	name 68298;
	longitude 249.295834578;
	to node6829968298;
	length 19.0913;
	latitude 1187.75506724;
	configuration 20531line_configuration98301;
};

object overhead_line {
	phases ACBN;
	from node6829968298;
	name 68299;
	longitude 251.005334611;
	to nodeR118268299;
	length 24.3563;
	latitude 1186.71625905;
	configuration 20531line_configuration98301;
};

object fuse {
	phases ACBN;
	from nodeR118268299;
	name R1182;
	current_limit 9999.0 A;
	longitude 251.005334611;
	to node20944R1182;
	latitude 1186.71625905;
};

object overhead_line {
	phases ACBN;
	from node20944R1182;
	name 20944;
	longitude 256.779314944;
	to node2083720944;
	length 82.2659;
	latitude 1183.20754522;
	configuration 20531line_configuration98301;
};

object overhead_line {
	phases ACBN;
	from node2083720944;
	name 20837;
	longitude 258.004151788;
	to node2088120837;
	length 87.5465;
	latitude 1176.21796983;
	configuration 20531line_configuration98301;
};

object overhead_line {
	phases ACBN;
	from node2088120837;
	name 20881;
	longitude 259.830364604;
	to node2044520881;
	length 281.156;
	latitude 1153.9880826;
	configuration 20531line_configuration98301;
};

object overhead_line {
	phases ACBN;
	from node2044520881;
	name 20445;
	longitude 262.881404192;
	to node2054920445;
	length 465.786;
	latitude 1116.84969696;
	configuration 20531line_configuration98301;
};

object overhead_line {
	phases ACBN;
	from node2054920445;
	name 20549;
	longitude 250.480527622;
	to node2036920549;
	length 212.612;
	latitude 1104.66049823;
	configuration 20531line_configuration98301;
};

object overhead_line {
	phases ACBN;
	from node2036920549;
	name 20369;
	longitude 227.795214826;
	to node2050620369;
	length 302.735;
	latitude 1094.36911029;
	configuration 20531line_configuration98301;
};

object overhead_line {
	phases ACBN;
	from node2050620369;
	name 20506;
	longitude 214.715738236;
	to node2036720506;
	length 178.526;
	latitude 1087.70338272;
	configuration 20531line_configuration98301;
};

object overhead_line {
	phases ACBN;
	from node2036720506;
	name 20367;
	longitude 217.769418141;
	to nodeT6246302788020367;
	length 144.103;
	latitude 1076.42072273;
	configuration 20531line_configuration98301;
};

object transformer {
	phases BS;
	from nodeT6246302788020367;
	name T62463027880;
	longitude 217.769418141;
	to node62463027798T62463027880;
	latitude 1076.42072273;
	configuration T62474206624transformer_configuration90001;
};

object triplex_node {
	phases BS;
	power_12 100;
	name 62463027798;
	parent node62463027798T62463027880;
	longitude 221.427692054;
	nominal_voltage 120;
	latitude 1078.91788322;
};

object overhead_line {
	phases ACBN;
	from nodeT6246302788020367;
	name 20286;
	longitude 223.420160483;
	to node2024820286;
	length 266.66;
	latitude 1055.54235659;
	configuration 20531line_configuration98301;
};

object overhead_line {
	phases ACBN;
	from node2024820286;
	name 20248;
	longitude 226.897791552;
	to node2014520248;
	length 153.517;
	latitude 1043.58324872;
	configuration 20531line_configuration98301;
};

object overhead_line {
	phases ACBN;
	from node2014520248;
	name 20145;
	longitude 235.106833166;
	to nodeT6246302460920145;
	length 357.003;
	latitude 1015.80689851;
	configuration 20531line_configuration98301;
};

object overhead_line {
	phases AN;
	from nodeT6246302460920145;
	name 20129;
	longitude 233.054465688;
	to nodeF894420129;
	length 27.7071;
	latitude 1014.815933;
	configuration 18949line_configuration24501;
};

object fuse {
	phases AN;
	from nodeF894420129;
	name F8944;
	current_limit 9999.0 A;
	longitude 233.054465688;
	to node20130F8944;
	latitude 1014.815933;
};

object overhead_line {
	phases AN;
	from node20130F8944;
	name 20130;
	longitude 225.375642686;
	to nodeT6246302377520130;
	length 103.665;
	latitude 1011.10827356;
	configuration 18949line_configuration24501;
};

object transformer {
	phases AS;
	from nodeT6246302377520130;
	name T62463023775;
	longitude 225.375642686;
	to node62463024800T62463023775;
	latitude 1011.10827356;
	configuration T62474206624transformer_configuration90001;
};

object triplex_node {
	phases AS;
	power_12 100;
	name 62463024800;
	parent node62463024800T62463023775;
	longitude 223.570878673;
	nominal_voltage 120;
	latitude 1013.90881607;
};

object triplex_node {
	phases AS;
	power_12 100;
	name 62463023758;
	parent node62463024800T62463023775;
	longitude 221.072775553;
	nominal_voltage 120;
	latitude 1012.57773881;
};

object overhead_line {
	phases ACBN;
	from nodeT6246302460920145;
	name 20050;
	longitude 241.406839867;
	to nodeT6246302267620050;
	length 287.2;
	latitude 993.377170686;
	configuration 20531line_configuration98301;
};

object transformer {
	phases BS;
	from nodeT6246302267620050;
	name T62463022676;
	longitude 241.406839867;
	to node62463022720T62463022676;
	latitude 993.377170686;
	configuration T62474206624transformer_configuration90001;
};

object triplex_node {
	phases BS;
	power_12 100;
	name 62463022720;
	parent node62463022720T62463022676;
	longitude 239.026685004;
	nominal_voltage 120;
	latitude 992.357525162;
};

object overhead_line {
	phases ACBN;
	from nodeT6246302267620050;
	name 19663;
	longitude 246.189847313;
	to nodeT6246302166319663;
	length 211.226;
	latitude 976.921978131;
	configuration 20531line_configuration98301;
};

object transformer {
	phases CS;
	from nodeT6246302166319663;
	name T62463021663;
	longitude 246.189847313;
	to node62463021692T62463021663;
	latitude 976.921978131;
	configuration T62474206624transformer_configuration90001;
};

object triplex_node {
	phases CS;
	power_12 100;
	name 62463021692;
	parent node62463021692T62463021663;
	longitude 251.721355884;
	nominal_voltage 120;
	latitude 977.66642275;
};

object overhead_line {
	phases ACBN;
	from nodeT6246302166319663;
	name 19935;
	longitude 250.792275688;
	to nodeT6246302067019935;
	length 194.654;
	latitude 961.813564972;
	configuration 20531line_configuration98301;
};

object transformer {
	phases BS;
	from nodeT6246302067019935;
	name T62463020670;
	longitude 250.792275688;
	to node62463020586T62463020670;
	latitude 961.813564972;
	configuration T62474206624transformer_configuration90001;
};

object triplex_node {
	phases BS;
	power_12 100;
	name 62463020586;
	parent node62463020586T62463020670;
	longitude 251.419592484;
	nominal_voltage 120;
	latitude 957.867363058;
};

object overhead_line {
	phases ACBN;
	from nodeT6246302067019935;
	name 19597;
	longitude 255.792020354;
	to node1985219597;
	length 222.044;
	latitude 944.50776554;
	configuration 20531line_configuration98301;
};

object overhead_line {
	phases ACBN;
	from node1985219597;
	name 19852;
	longitude 276.43593505;
	to nodeT6246301941419852;
	length 273.49;
	latitude 935.53590307;
	configuration 20531line_configuration98301;
};

object transformer {
	phases AS;
	from nodeT6246301941419852;
	name T62463019414;
	longitude 276.43593505;
	to node62463019437T62463019414;
	latitude 935.53590307;
	configuration T62474206624transformer_configuration90001;
};

object triplex_node {
	phases AS;
	power_12 100;
	name 62463019437;
	parent node62463019437T62463019414;
	longitude 282.215682914;
	nominal_voltage 120;
	latitude 935.921354513;
};

object overhead_line {
	phases CN;
	from nodeT6246301941419852;
	name 19850;
	longitude 275.524131159;
	to nodeF757319850;
	length 26.5061;
	latitude 937.487875569;
	configuration 16781line_configuration73701;
};

object fuse {
	phases CN;
	from nodeF757319850;
	name F7573;
	current_limit 9999.0 A;
	longitude 275.524131159;
	to node19851F7573;
	latitude 937.487875569;
};

object overhead_line {
	phases CN;
	from node19851F7573;
	name 19851;
	longitude 272.741612117;
	to nodeT6246301946719851;
	length 80.8867;
	latitude 943.444541535;
	configuration 16781line_configuration73701;
};

object transformer {
	phases CS;
	from nodeT6246301946719851;
	name T62463019467;
	longitude 272.741612117;
	to node62463019498T62463019467;
	latitude 943.444541535;
	configuration T62474206624transformer_configuration90001;
};

object triplex_node {
	phases CS;
	power_12 1519.04;
	name 62463019498;
	parent node62463019498T62463019467;
	longitude 274.999206291;
	nominal_voltage 120;
	latitude 939.489926385;
};

object overhead_line {
	phases CN;
	from nodeT6246301941419852;
	name 19848;
	longitude 278.588226174;
	to nodeF794419848;
	length 28.1181;
	latitude 936.389135487;
	configuration 16781line_configuration73701;
};

object fuse {
	phases CN;
	from nodeF794419848;
	name F7944;
	current_limit 9999.0 A;
	longitude 278.588226174;
	to node19849F7944;
	latitude 936.389135487;
};

object overhead_line {
	phases CN;
	from node19849F7944;
	name 19849;
	longitude 297.100498594;
	to node1959219849;
	length 241.85;
	latitude 943.72804257;
	configuration 16781line_configuration73701;
};

object overhead_line {
	phases CN;
	from node1959219849;
	name 19592;
	longitude 299.406890102;
	to node1996419592;
	length 320.096;
	latitude 969.560163313;
	configuration 16781line_configuration73701;
};

object overhead_line {
	phases CN;
	from node1996419592;
	name 19964;
	longitude 301.708126963;
	to nodeT6246302228919964;
	length 319.967;
	latitude 995.382192376;
	configuration 16781line_configuration73701;
};

object transformer {
	phases CS;
	from nodeT6246302228919964;
	name T62463022289;
	longitude 301.708126963;
	to node62463022298T62463022289;
	latitude 995.382192376;
	configuration T62474206624transformer_configuration90001;
};

object triplex_node {
	phases CS;
	power_12 1655.3;
	name 62463022298;
	parent node62463022298T62463022289;
	longitude 298.671140313;
	nominal_voltage 120;
	latitude 997.776995526;
};

object overhead_line {
	phases CN;
	from nodeT6246302228919964;
	name 20061;
	longitude 300.939307964;
	to node2013220061;
	length 203.088;
	latitude 1011.81711262;
	configuration 16781line_configuration73701;
};

object overhead_line {
	phases CN;
	from node2013220061;
	name 20132;
	longitude 305.644965407;
	to nodeT6246302425720132;
	length 158.947;
	latitude 1023.83698307;
	configuration 16781line_configuration73701;
};

object transformer {
	phases CS;
	from nodeT6246302425720132;
	name T62463024257;
	longitude 305.644965407;
	to node62463025237T62463024257;
	latitude 1023.83698307;
	configuration T62474206624transformer_configuration90001;
};

object triplex_node {
	phases CS;
	power_12 10133.7;
	name 62463025237;
	parent node62463025237T62463024257;
	longitude 303.332594264;
	nominal_voltage 120;
	latitude 1018.82836887;
};

object overhead_line {
	phases AN;
	from nodeT6246301941419852;
	name 19837;
	longitude 275.789824963;
	to nodeF758219837;
	length 24.9997;
	latitude 933.612479935;
	configuration 18949line_configuration24501;
};

object fuse {
	phases AN;
	from nodeF758219837;
	name F7582;
	current_limit 9999.0 A;
	longitude 275.789824963;
	to node19770F7582;
	latitude 933.612479935;
};

object overhead_line {
	phases AN;
	from node19770F7582;
	name 19770;
	longitude 269.047258952;
	to nodeT6246301747919770;
	length 260.872;
	latitude 913.54165931;
	configuration 18949line_configuration24501;
};

object transformer {
	phases AS;
	from nodeT6246301747919770;
	name T62463017479;
	longitude 269.047258952;
	to node62463018503T62463017479;
	latitude 913.54165931;
	configuration T62474206624transformer_configuration90001;
};

object triplex_node {
	phases AS;
	power_12 100;
	name 62463018503;
	parent node62463018503T62463017479;
	longitude 266.702236732;
	nominal_voltage 120;
	latitude 914.021818228;
};

object overhead_line {
	phases AN;
	from nodeT6246301747919770;
	name 19750;
	longitude 282.7359216;
	to nodeT6246301745119750;
	length 174.815;
	latitude 909.055700896;
	configuration 18949line_configuration24501;
};

object transformer {
	phases AS;
	from nodeT6246301745119750;
	name T62463017451;
	longitude 282.7359216;
	to node62463017349T62463017451;
	latitude 909.055700896;
	configuration T62474206624transformer_configuration90001;
};

object triplex_node {
	phases AS;
	power_12 100;
	name 62463017349;
	parent node62463017349T62463017451;
	longitude 279.190378414;
	nominal_voltage 120;
	latitude 913.407103802;
};

object triplex_node {
	phases AS;
	power_12 100;
	name 62463017481;
	parent node62463017349T62463017451;
	longitude 276.854829797;
	nominal_voltage 120;
	latitude 915.696765807;
};

object overhead_line {
	phases AN;
	from nodeT6246301747919770;
	name 19583;
	longitude 256.008727335;
	to nodeT6246301555719583;
	length 467.84;
	latitude 877.86680185;
	configuration 18949line_configuration24501;
};

object transformer {
	phases AS;
	from nodeT6246301555719583;
	name T62463015557;
	longitude 256.008727335;
	to node62463016405T62463015557;
	latitude 877.86680185;
	configuration T62474206624transformer_configuration90001;
};

object triplex_node {
	phases AS;
	power_12 100;
	name 62463016405;
	parent node62463016405T62463015557;
	longitude 257.437520261;
	nominal_voltage 120;
	latitude 882.000741555;
};

object triplex_node {
	phases AS;
	power_12 100;
	name 62463014593;
	parent node62463016405T62463015557;
	longitude 253.854067238;
	nominal_voltage 120;
	latitude 884.083319518;
};

object overhead_line {
	phases AN;
	from nodeT6246301555719583;
	name 19342;
	longitude 256.581462998;
	to nodeT6246301357619342;
	length 372.94;
	latitude 847.660111688;
	configuration 18949line_configuration24501;
};

object transformer {
	phases AS;
	from nodeT6246301357619342;
	name T62463013576;
	longitude 256.581462998;
	to node62463013691T62463013576;
	latitude 847.660111688;
	configuration T62474206624transformer_configuration90001;
};

object triplex_node {
	phases AS;
	power_12 100;
	name 62463013691;
	parent node62463013691T62463013576;
	longitude 258.262191851;
	nominal_voltage 120;
	latitude 847.911474492;
};

object overhead_line {
	phases AN;
	from nodeT6246301357619342;
	name 19399;
	longitude 267.664492261;
	to nodeT6246301254019399;
	length 288.845;
	latitude 826.941758477;
	configuration 18949line_configuration24501;
};

object transformer {
	phases AS;
	from nodeT6246301254019399;
	name T62463012540;
	longitude 267.664492261;
	to node62463012543T62463012540;
	latitude 826.941758477;
	configuration T62474206624transformer_configuration90001;
};

object triplex_node {
	phases AS;
	power_12 100;
	name 62463012543;
	parent node62463012543T62463012540;
	longitude 267.50303519;
	nominal_voltage 120;
	latitude 827.069220049;
};

object overhead_line {
	phases AN;
	from nodeT6246301555719583;
	name 19584;
	longitude 237.026252966;
	to node1948319584;
	length 235.1;
	latitude 881.836266017;
	configuration 18949line_configuration24501;
};

object overhead_line {
	phases AN;
	from node1948319584;
	name 19483;
	longitude 227.026793882;
	to nodeT6246301473419483;
	length 316.703;
	latitude 858.13067729;
	configuration 18949line_configuration24501;
};

object transformer {
	phases AS;
	from nodeT6246301473419483;
	name T62463014734;
	longitude 227.026793882;
	to node62463014628T62463014734;
	latitude 858.13067729;
	configuration T62474206624transformer_configuration90001;
};

object triplex_node {
	phases AS;
	power_12 100;
	name 62463014628;
	parent node62463014628T62463014734;
	longitude 226.483865679;
	nominal_voltage 120;
	latitude 855.874301826;
};

object triplex_node {
	phases AS;
	power_12 100;
	name 62463014757;
	parent node62463014628T62463014734;
	longitude 225.29207689;
	nominal_voltage 120;
	latitude 858.705833752;
};

object overhead_line {
	phases AN;
	from nodeT6246301473419483;
	name 19474;
	longitude 222.248870539;
	to nodeT6246301373719474;
	length 201.012;
	latitude 842.536217883;
	configuration 18949line_configuration24501;
};

object transformer {
	phases AS;
	from nodeT6246301373719474;
	name T62463013737;
	longitude 222.248870539;
	to node62463013707T62463013737;
	latitude 842.536217883;
	configuration T62474206624transformer_configuration90001;
};

object triplex_node {
	phases AS;
	power_12 100;
	name 62463013707;
	parent node62463013707T62463013737;
	longitude 222.976334305;
	nominal_voltage 120;
	latitude 841.153389065;
};

object overhead_line {
	phases AN;
	from node1948319584;
	name 18573;
	longitude 206.661472207;
	to nodeT6246301683718573;
	length 383.447;
	latitude 890.615778728;
	configuration 18949line_configuration24501;
};

object transformer {
	phases AS;
	from nodeT6246301683718573;
	name T62463016837;
	longitude 206.661472207;
	to node62463016900T62463016837;
	latitude 890.615778728;
	configuration T62474206624transformer_configuration90001;
};

object triplex_node {
	phases AS;
	power_12 100;
	name 62463016900;
	parent node62463016900T62463016837;
	longitude 203.74572435;
	nominal_voltage 120;
	latitude 894.155391215;
};

object overhead_line {
	phases AN;
	from nodeT6246301683718573;
	name 19688;
	longitude 180.243859343;
	to nodeT6247419602319688;
	length 321.462;
	latitude 888.134807413;
	configuration 18949line_configuration24501;
};

object transformer {
	phases AS;
	from nodeT6247419602319688;
	name T62474196023;
	longitude 180.243859343;
	to node62474195011T62474196023;
	latitude 888.134807413;
	configuration T62474206624transformer_configuration90001;
};

object triplex_node {
	phases AS;
	power_12 100;
	name 62474195011;
	parent node62474195011T62474196023;
	longitude 183.332029256;
	nominal_voltage 120;
	latitude 884.681861676;
};

object triplex_node {
	phases AS;
	power_12 100;
	name 62463016996;
	parent node62474195011T62474196023;
	longitude 184.801486343;
	nominal_voltage 120;
	latitude 885.333959138;
};

object overhead_line {
	phases AN;
	from nodeT6247419602319688;
	name 19558;
	longitude 163.000155169;
	to nodeT6247419610319558;
	length 211.036;
	latitude 885.694390604;
	configuration 18949line_configuration24501;
};

object transformer {
	phases AS;
	from nodeT6247419610319558;
	name T62474196103;
	longitude 163.000155169;
	to node62474195151T62474196103;
	latitude 885.694390604;
	configuration T62474206624transformer_configuration90001;
};

object triplex_node {
	phases AS;
	power_12 100;
	name 62474195151;
	parent node62474195151T62474196103;
	longitude 162.763445004;
	nominal_voltage 120;
	latitude 889.574150704;
};

object overhead_line {
	phases AN;
	from nodeT6247419610319558;
	name 19560;
	longitude 146.344711076;
	to nodeT6247419621319560;
	length 202.261;
	latitude 886.858911923;
	configuration 18949line_configuration24501;
};

object transformer {
	phases AS;
	from nodeT6247419621319560;
	name T62474196213;
	longitude 146.344711076;
	to node62474195268T62474196213;
	latitude 886.858911923;
	configuration T62474206624transformer_configuration90001;
};

object triplex_node {
	phases AS;
	power_12 100;
	name 62474195268;
	parent node62474195268T62474196213;
	longitude 151.000638044;
	nominal_voltage 120;
	latitude 887.592414775;
};

object triplex_node {
	phases AS;
	power_12 100;
	name 62474195267;
	parent node62474195268T62474196213;
	longitude 150.966729903;
	nominal_voltage 120;
	latitude 887.828052123;
};

object overhead_line {
	phases AN;
	from nodeT6247419621319560;
	name 19683;
	longitude 129.503482876;
	to nodeT6247419635319683;
	length 217.697;
	latitude 893.015685507;
	configuration 18949line_configuration24501;
};

object transformer {
	phases AS;
	from nodeT6247419635319683;
	name T62474196353;
	longitude 129.503482876;
	to node62474196319T62474196353;
	latitude 893.015685507;
	configuration T62474206624transformer_configuration90001;
};

object triplex_node {
	phases AS;
	power_12 100;
	name 62474196319;
	parent node62474196319T62474196353;
	longitude 127.613598324;
	nominal_voltage 120;
	latitude 891.693587719;
};

object triplex_node {
	phases AS;
	power_12 100;
	name 62474197334;
	parent node62474196319T62474196353;
	longitude 129.265386062;
	nominal_voltage 120;
	latitude 892.118897059;
};

object overhead_line {
	phases AN;
	from nodeT6247419621319560;
	name 19682;
	longitude 143.037309467;
	to nodeT6247419721519682;
	length 198.705;
	latitude 902.625503134;
	configuration 18949line_configuration24501;
};

object transformer {
	phases AS;
	from nodeT6247419721519682;
	name T62474197215;
	longitude 143.037309467;
	to node62474197221T62474197215;
	latitude 902.625503134;
	configuration T62474206624transformer_configuration90001;
};

object triplex_node {
	phases AS;
	power_12 100;
	name 62474197221;
	parent node62474197221T62474197215;
	longitude 143.287353299;
	nominal_voltage 120;
	latitude 899.542941227;
};

object overhead_line {
	phases AN;
	from nodeT6247419610319558;
	name 19559;
	longitude 159.455473318;
	to nodeT6247419710519559;
	length 202.235;
	latitude 901.704012351;
	configuration 18949line_configuration24501;
};

object transformer {
	phases AS;
	from nodeT6247419710519559;
	name T62474197105;
	longitude 159.455473318;
	to node62474196191T62474197105;
	latitude 901.704012351;
	configuration T62474206624transformer_configuration90001;
};

object triplex_node {
	phases AS;
	power_12 100;
	name 62474196191;
	parent node62474196191T62474197105;
	longitude 161.718130361;
	nominal_voltage 120;
	latitude 904.583599158;
};

object overhead_line {
	phases AN;
	from node1948319584;
	name 18572;
	longitude 243.976330226;
	to nodeT6246301663418572;
	length 141.214;
	latitude 891.020829622;
	configuration 18949line_configuration24501;
};

object transformer {
	phases AS;
	from nodeT6246301663418572;
	name T62463016634;
	longitude 243.976330226;
	to node62463016539T62463016634;
	latitude 891.020829622;
	configuration T62474206624transformer_configuration90001;
};

object triplex_node {
	phases AS;
	power_12 100;
	name 62463016539;
	parent node62463016539T62463016634;
	longitude 247.519228764;
	nominal_voltage 120;
	latitude 893.047273249;
};

object overhead_line {
	phases ACBN;
	from nodeT6246301941419852;
	name 19815;
	longitude 301.377926962;
	to nodeT6246301824919815;
	length 335.444;
	latitude 923.728669519;
	configuration 20531line_configuration98301;
};

object transformer {
	phases BS;
	from nodeT6246301824919815;
	name T62463018249;
	longitude 301.377926962;
	to node62463018228T62463018249;
	latitude 923.728669519;
	configuration T62474206624transformer_configuration90001;
};

object triplex_node {
	phases BS;
	power_12 100;
	name 62463018228;
	parent node62463018228T62463018249;
	longitude 302.779262166;
	nominal_voltage 120;
	latitude 924.684395819;
};

object overhead_line {
	phases CN;
	from nodeT6246301824919815;
	name 19816;
	longitude 302.438590932;
	to nodeF581519816;
	length 26.6007;
	latitude 925.615577721;
	configuration 16781line_configuration73701;
};

object fuse {
	phases CN;
	from nodeF581519816;
	name F5815;
	current_limit 9999.0 A;
	longitude 302.438590932;
	to node19563F5815;
	latitude 925.615577721;
};

object overhead_line {
	phases CN;
	from node19563F5815;
	name 19563;
	longitude 312.130685673;
	to nodeT6246301925319563;
	length 243.066;
	latitude 942.857217739;
	configuration 16781line_configuration73701;
};

object transformer {
	phases CS;
	from nodeT6246301925319563;
	name T62463019253;
	longitude 312.130685673;
	to node62463019285T62463019253;
	latitude 942.857217739;
	configuration T62474206624transformer_configuration90001;
};

object triplex_node {
	phases CS;
	power_12 4534.42;
	name 62463019285;
	parent node62463019285T62463019253;
	longitude 308.551476763;
	nominal_voltage 120;
	latitude 942.918755882;
};

object overhead_line {
	phases CN;
	from nodeT6246301925319563;
	name 19237;
	longitude 316.805349708;
	to nodeT6246302120019237;
	length 305.297;
	latitude 967.160251593;
	configuration 16781line_configuration73701;
};

object transformer {
	phases CS;
	from nodeT6246302120019237;
	name T62463021200;
	longitude 316.805349708;
	to node62463021167T62463021200;
	latitude 967.160251593;
	configuration T62474206624transformer_configuration90001;
};

object triplex_node {
	phases CS;
	power_12 3757.23;
	name 62463021167;
	parent node62463021167T62463021200;
	longitude 322.042587059;
	nominal_voltage 120;
	latitude 963.442327907;
};

object overhead_line {
	phases ACBN;
	from nodeT6246301824919815;
	name 19765;
	longitude 331.242162363;
	to node1974819765;
	length 386.822;
	latitude 912.630275033;
	configuration 20531line_configuration98301;
};

object overhead_line {
	phases ACBN;
	from node1974819765;
	name 19748;
	longitude 341.675070684;
	to nodeT6246301704519748;
	length 137.975;
	latitude 908.144321561;
	configuration 20531line_configuration98301;
};

object transformer {
	phases BS;
	from nodeT6246301704519748;
	name T62463017045;
	longitude 341.675070684;
	to node62463017062T62463017045;
	latitude 908.144321561;
	configuration T62474206624transformer_configuration90001;
};

object triplex_node {
	phases BS;
	power_12 100;
	name 62463017062;
	parent node62463017062T62463017045;
	longitude 337.405464874;
	nominal_voltage 120;
	latitude 904.732065211;
};

object overhead_line {
	phases AN;
	from nodeT6246301704519748;
	name 19740;
	longitude 341.219546651;
	to nodeF758519740;
	length 25.0001;
	latitude 906.16900128;
	configuration 18949line_configuration24501;
};

object fuse {
	phases AN;
	from nodeF758519740;
	name F7585;
	current_limit 9999.0 A;
	longitude 341.219546651;
	to node19714F7585;
	latitude 906.16900128;
};

object overhead_line {
	phases AN;
	from node19714F7585;
	name 19714;
	longitude 339.064267538;
	to nodeT6246301607719714;
	length 118.283;
	latitude 896.823198499;
	configuration 18949line_configuration24501;
};

object transformer {
	phases AS;
	from nodeT6246301607719714;
	name T62463016077;
	longitude 339.064267538;
	to node62463016038T62463016077;
	latitude 896.823198499;
	configuration T62474206624transformer_configuration90001;
};

object triplex_node {
	phases AS;
	power_12 100;
	name 62463016038;
	parent node62463016038T62463016077;
	longitude 335.325755565;
	nominal_voltage 120;
	latitude 895.369274388;
};

object overhead_line {
	phases AN;
	from nodeT6246301607719714;
	name 18588;
	longitude 352.536228241;
	to node1950718588;
	length 218.301;
	latitude 885.076707758;
	configuration 18949line_configuration24501;
};

object overhead_line {
	phases AN;
	from node1950718588;
	name 19507;
	longitude 350.147281685;
	to nodeT6246301405019507;
	length 286.217;
	latitude 862.009059363;
	configuration 18949line_configuration24501;
};

object transformer {
	phases AS;
	from nodeT6246301405019507;
	name T62463014050;
	longitude 350.147281685;
	to node62463074975T62463014050;
	latitude 862.009059363;
	configuration T62474206624transformer_configuration90001;
};

object triplex_node {
	phases AS;
	power_12 100;
	name 62463074975;
	parent node62463074975T62463014050;
	longitude 355.534320627;
	nominal_voltage 120;
	latitude 863.361906242;
};

object overhead_line {
	phases AN;
	from nodeT6246301704519748;
	name 19561;
	longitude 314.633145409;
	to nodeT6246301620119561;
	length 428.982;
	latitude 885.704536643;
	configuration 19519line_configuration15901;
};

object transformer {
	phases AS;
	from nodeT6246301620119561;
	name T62463016201;
	longitude 314.633145409;
	to node62463016251T62463016201;
	latitude 885.704536643;
	configuration T62474206624transformer_configuration90001;
};

object triplex_node {
	phases AS;
	power_12 100;
	name 62463016251;
	parent node62463016251T62463016201;
	longitude 316.350760047;
	nominal_voltage 120;
	latitude 886.356726256;
};

object triplex_node {
	phases AS;
	power_12 100;
	name 62463015244;
	parent node62463016251T62463016201;
	longitude 316.965434363;
	nominal_voltage 120;
	latitude 886.926057801;
};

object overhead_line {
	phases ACBN;
	from nodeT6246301704519748;
	name 19731;
	longitude 354.06868137;
	to node5801719731;
	length 155.789;
	latitude 904.772272871;
	configuration 20531line_configuration98301;
};

object underground_line {
	phases ACBN;
	from node5801719731;
	name 58017;
	longitude 355.299161619;
	to nodeF758658017;
	length 24.9999;
	latitude 906.398212047;
	configuration 57825line_configuration40901;
};

object fuse {
	phases ACB;
	from nodeF758658017;
	name F7586;
	current_limit 9999.0 A;
	longitude 355.299161619;
	to node58021F7586;
	latitude 906.398212047;
};

object underground_line {
	phases ACB;
	from node58021F7586;
	name 58021;
	longitude 363.572795097;
	to nodeT6246307892258021;
	length 201.626;
	latitude 920.397125919;
	configuration 57825line_configuration40901;
};

object transformer {
	phases AS;
	from nodeT6246307892258021;
	name T62463078922;
	longitude 363.572795097;
	to node62463078953T62463078922;
	latitude 920.397125919;